*Heading
** Job name: Fatigue_B0 Model name: B_plastic
** Generated by: Abaqus/CAE 6.14-1
*Preprint, echo=NO, model=NO, history=NO, contact=NO
**
** PARTS
**
*Part, name=Part-1
*Node
1,-27.5,10.,1.60000002
2,-27.5,10.,0.800000012
3,-27.5,10.,0.
4,-27.5,2.5,0.800000012
5,-27.5,2.5,0.
6,-27.5,2.5,1.60000002
7,-9.,10.,0.800000012
8,-9.,10.,0.
9,-9.,2.5,0.
10,-9.,2.5,1.60000002
11,-9.,2.5,0.800000012
12,-9.,10.,1.60000002
13,-37.5,5.,0.
14,-40.,5.,0.209800541
15,-40.,5.,0.800000012
16,-40.,5.,1.39019942
17,-40.,5.,1.60000002
18,-37.5,5.,0.800000012
19,-37.5,5.,1.08324003
20,-37.5,5.,1.60000002
** ... 4712 like lines cut
*Element, type=C3D8
1,122,827,2038,431,1,27,321,56
2,827,828,2039,2038,27,28,322,321
3,828,829,2040,2039,28,2,323,322
4,829,830,2041,2040,2,29,324,323
5,830,831,2042,2041,29,30,325,324
6,831,141,629,2042,30,3,31,325
7,431,2038,2043,432,56,321,326,55
8,2038,2039,2044,2043,321,322,327,326
9,2039,2040,2045,2044,322,323,328,327
10,2040,2041,2046,2045,323,324,329,328
11,2041,2042,2047,2046,324,325,330,329
12,2042,629,630,2047,325,31,32,330
13,432,2043,2048,433,55,326,331,54
14,2043,2044,2049,2048,326,327,332,331
15,2044,2045,2050,2049,327,328,333,332
16,2045,2046,2051,2050,328,329,334,333
17,2046,2047,2052,2051,329,330,335,334
18,2047,630,631,2052,330,32,33,335
19,433,2048,2053,434,54,331,336,53
20,2048,2049,2054,2053,331,332,337,336
** ... 3652 like lines cut
*Nset, nset=ClipEdge, generate
1,4732,1
*Elset, elset=ClipEdge, generate
1,3672,1
*Nset, nset=Origin
14,
*Nset, nset=Set-17, generate
1,4732,1
*Elset, elset=Set-17, generate
1,3672,1
*Elset, elset=_Surf-0_S1, internal, generate
1297,1368,1
*Surface, type=ELEMENT, name=Surf-0
_Surf-0_S1, S1
*Elset, elset=_Surf-x_S4, internal
1380,1392,1404,1416,1428,1440,1572,1584,1596,1608,1620,1632,1764,1776,1788,1800
1812,1824,1956,1968,1980,1992,2004,2016,2148,2160,2172,2184,2196,2208,2340,2352
2364,2376,2388,2400,2532,2544,2556,2568,2580,2592,2724,2736,2748,2760,2772,2784
2916,2928,2940,2952,2964,2976,3108,3120,3132,3144,3156,3168,3300,3312,3324,3336
3348,3360,3492,3504,3516,3528,3540,3552
*Surface, type=ELEMENT, name=Surf-x
_Surf-x_S4, S4
*Elset, elset=_Surf-y_S2, internal, generate
3481,3672,1
*Elset, elset=_Surf-y_S5, internal
67,68,69,70,71,72,139,140,141,142,143,144,211,212,213,214
215,216,283,284,285,286,287,288,355,356,357,358,359,360,427,428
429,430,431,432,499,500,501,502,503,504,571,572,573,574,575,576
643,644,645,646,647,648,715,716,717,718,719,720,787,788,789,790
791,792,859,860,861,862,863,864,931,932,933,934,935,936,1003,1004
1005,1006,1007,1008,1075,1076,1077,1078,1079,1080,1147,1148,1149,1150,1151,1152
1219,1220,1221,1222,1223,1224,1291,1292,1293,1294,1295,1296,1363,1364,1365,1366
1367,1368
*Surface, type=ELEMENT, name=Surf-y
_Surf-y_S2, S2
_Surf-y_S5, S5
** Section: Section-1
*Solid Section, elset=Set-17, material=Material-1
,
*End Part
**  
**
** ASSEMBLY
**
*Assembly, name=Assembly
**  
*Instance, name=Part-1-1, part=Part-1
40.,-2.5,-0.209801
*End Instance
**  
*Nset, nset=Surf-x, instance=Part-1-1
14,15,16,17,23,24,25,26,170,171,172,255,256,257,258,259
260,261,262,263,264,265,307,308,309,310,311,312,313,314,315,316
317,318,319,320,1828,1829,1830,1831,1832,1833,1834,1835,1836,1837,1838,1839
1840,1841,1842,1843,1844,1845,1846,1847,1848,1849,1850,1851,1852,1853,1854,1855
1856,1857,1858,1859,1860,1861,1862,1863,1864,1865,1866,1867,1868,1869,1870,1871
1872,1873,1874,1875,1876,1877,1878,1879,1880,1881,1882
*Elset, elset=Surf-x, instance=Part-1-1
1380,1392,1404,1416,1428,1440,1572,1584,1596,1608,1620,1632,1764,1776,1788,1800
1812,1824,1956,1968,1980,1992,2004,2016,2148,2160,2172,2184,2196,2208,2340,2352
2364,2376,2388,2400,2532,2544,2556,2568,2580,2592,2724,2736,2748,2760,2772,2784
2916,2928,2940,2952,2964,2976,3108,3120,3132,3144,3156,3168,3300,3312,3324,3336
3348,3360,3492,3504,3516,3528,3540,3552
*Nset, nset=Surf-y, instance=Part-1-1
4,5,6,9,10,11,21,22,23,24,25,26,42,43,44,45
72,73,74,75,87,88,89,90,91,92,93,94,95,96,97,98
99,100,101,102,103,104,123,124,125,126,127,128,129,130,131,132
133,134,135,136,137,138,139,140,236,237,238,239,240,241,242,243
244,245,246,247,248,249,250,251,252,253,254,266,267,268,269,270
271,272,273,274,275,276,277,278,279,280,281,282,283,284,285,286
287,288,289,290,291,292,293,294,295,296,297,298,299,300,301,302
303,304,305,306,318,319,320,917,918,919,920,921,922,923,924,925
926,927,928,929,930,931,932,933,934,935,936,937,938,939,940,941
942,943,944,945,946,947,948,949,950,951,952,953,954,955,956,957
958,959,960,961,962,963,964,965,966,967,968,969,970,971,972,973
974,975,976,977,978,979,980,981,982,983,984,985,986,987,988,989
990,991,992,993,994,995,996,997,998,999,1000,1001,1002,1003,1004,1005
1006,1883,1884,1885,1886,1887,1888,1889,1890,1891,1892,1893,1894,1895,1896,1897
1898,1899,1900,1901,1902,1903,1904,1905,1906,1907,1908,1909,1910,1911,1912,1913
1914,1915,1916,1917,1918,1919,1920,1921,1922,1923,1924,1925,1926,1927,1928,1929
1930,1931,1932,1933,1934,1935,1936,1937,1938,1939,1940,1941,1942,1943,1944,1945
1946,1947,1948,1949,1950,1951,1952,1953,1954,1955,1956,1957,1958,1959,1960,1961
1962,1963,1964,1965,1966,1967,1968,1969,1970,1971,1972,1973,1974,1975,1976,1977
1978,1979,1980,1981,1982,1983,1984,1985,1986,1987,1988,1989,1990,1991,1992,1993
1994,1995,1996,1997,1998,1999,2000,2001,2002,2003,2004,2005,2006,2007,2008,2009
2010,2011,2012,2013,2014,2015,2016,2017,2018,2019,2020,2021,2022,2023,2024,2025
2026,2027,2028,2029,2030,2031,2032,2033,2034,2035,2036,2037
*Elset, elset=Surf-y, instance=Part-1-1
67,68,69,70,71,72,139,140,141,142,143,144,211,212,213,214
215,216,283,284,285,286,287,288,355,356,357,358,359,360,427,428
429,430,431,432,499,500,501,502,503,504,571,572,573,574,575,576
643,644,645,646,647,648,715,716,717,718,719,720,787,788,789,790
791,792,859,860,861,862,863,864,931,932,933,934,935,936,1003,1004
1005,1006,1007,1008,1075,1076,1077,1078,1079,1080,1147,1148,1149,1150,1151,1152
1219,1220,1221,1222,1223,1224,1291,1292,1293,1294,1295,1296,1363,1364,1365,1366
1367,1368,3481,3482,3483,3484,3485,3486,3487,3488,3489,3490,3491,3492,3493,3494
3495,3496,3497,3498,3499,3500,3501,3502,3503,3504,3505,3506,3507,3508,3509,3510
3511,3512,3513,3514,3515,3516,3517,3518,3519,3520,3521,3522,3523,3524,3525,3526
3527,3528,3529,3530,3531,3532,3533,3534,3535,3536,3537,3538,3539,3540,3541,3542
3543,3544,3545,3546,3547,3548,3549,3550,3551,3552,3553,3554,3555,3556,3557,3558
3559,3560,3561,3562,3563,3564,3565,3566,3567,3568,3569,3570,3571,3572,3573,3574
3575,3576,3577,3578,3579,3580,3581,3582,3583,3584,3585,3586,3587,3588,3589,3590
3591,3592,3593,3594,3595,3596,3597,3598,3599,3600,3601,3602,3603,3604,3605,3606
3607,3608,3609,3610,3611,3612,3613,3614,3615,3616,3617,3618,3619,3620,3621,3622
3623,3624,3625,3626,3627,3628,3629,3630,3631,3632,3633,3634,3635,3636,3637,3638
3639,3640,3641,3642,3643,3644,3645,3646,3647,3648,3649,3650,3651,3652,3653,3654
3655,3656,3657,3658,3659,3660,3661,3662,3663,3664,3665,3666,3667,3668,3669,3670
3671,3672
*Elset, elset=TrimingE, instance=Part-1-1
1369,1370,1371,1372,1373,1374,1375,1376,1377,1378,1379,1380,1561,1562,1563,1564
1565,1566,1567,1568,1569,1570,1571,1572,1753,1754,1755,1756,1757,1758,1759,1760
1761,1762,1763,1764,1945,1946,1947,1948,1949,1950,1951,1952,1953,1954,1955,1956
2137,2138,2139,2140,2141,2142,2143,2144,2145,2146,2147,2148,2329,2330,2331,2332
2333,2334,2335,2336,2337,2338,2339,2340,2521,2522,2523,2524,2525,2526,2527,2528
2529,2530,2531,2532,2713,2714,2715,2716,2717,2718,2719,2720,2721,2722,2723,2724
2905,2906,2907,2908,2909,2910,2911,2912,2913,2914,2915,2916,3097,3098,3099,3100
3101,3102,3103,3104,3105,3106,3107,3108,3289,3290,3291,3292,3293,3294,3295,3296
3297,3298,3299,3300,3481,3482,3483,3484,3485,3486,3487,3488,3489,3490,3491,3492
*Nset, nset=TrimingN, instance=Part-1-1
13,14,21,24,159,160,161,162,163,164,165,166,167,168,169,225
226,227,228,229,230,231,232,233,234,235,296,297,298,299,300,301
302,303,304,305,306,307,308,309,310,311,312,313,314,315,316,317
1707,1708,1709,1710,1711,1712,1713,1714,1715,1716,1717,1718,1719,1720,1721,1722
1723,1724,1725,1726,1727,1728,1729,1730,1731,1732,1733,1734,1735,1736,1737,1738
1739,1740,1741,1742,1743,1744,1745,1746,1747,1748,1749,1750,1751,1752,1753,1754
1755,1756,1757,1758,1759,1760,1761,1762,1763,1764,1765,1766,1767,1768,1769,1770
1771,1772,1773,1774,1775,1776,1777,1778,1779,1780,1781,1782,1783,1784,1785,1786
1787,1788,1789,1790,1791,1792,1793,1794,1795,1796,1797,1798,1799,1800,1801,1802
1803,1804,1805,1806,1807,1808,1809,1810,1811,1812,1813,1814,1815,1816,1817,1818
1819,1820,1821,1822,1823,1824,1825,1826,1827
*Elset, elset=__PickedSurf16_S1, internal, instance=Part-1-1, generate
1297,1368,1
*Surface, type=ELEMENT, name=_PickedSurf16, internal
__PickedSurf16_S1, S1
*End Assembly
** 
** MATERIALS
** 
*Material, name=Material-1
*Elastic
209000.,0.3
*Plastic
0.1,0.
1.,1.04e-18
2.,7.89e-17
3.,9.94e-16
4.,6.e-15
5.,2.42e-14
6.,7.57e-14
7.,1.98e-13
8.,4.57e-13
9.,9.54e-13
10.,1.84e-12
11.,3.34e-12
12.,5.76e-12
13.,9.5e-12
14.,1.51e-11
15.,2.32e-11
16.,3.48e-11
17.,5.08e-11
18.,7.26e-11
19.,1.02e-10
20.,1.4e-10
21.,1.9e-10
22.,2.54e-10
23.,3.36e-10
24.,4.38e-10
** ... 82 like lines cut
107.,5.e-6
108.,5.3e-6
109.,5.61e-6
110.,5.94e-6
111.,6.29e-6
112.,6.65e-6
113.,7.03e-6
114.,7.43e-6
115.,7.85e-6
116.,8.28e-6
117.,8.74e-6
118.,9.22e-6
119.,9.72e-6
120.,0.0000102401
121.,0.0000107852
122.,0.0000113546
123.,0.0000119489
124.,0.0000125692
125.,0.0000132163
126.,0.0000138911
127.,0.0000145947
** ... 173 like lines cut
** 
** BOUNDARY CONDITIONS
** 
** Name: BC-2 Type: //S
*Boundary
Surf-y, YSYMM
** Name: BC-3 Type: //S
*Boundary
Surf-x, XSYMM
**
**
**-----------------------------------------------------------
**
*Step, name = Step-1, nlgeom = NO
*Static
1., 1., 1e-5, 1
*Dsload
_PickedSurf16,TRVEC,0.29166666666666663, 1.,0.,0.
*EL PRINT, POSITION=AVERAGED AT NODES, ELSET=TrimingE, FREQUENCY=99999
S,MISES
*EL PRINT, POSITION=AVERAGED AT NODES, ELSET=TrimingE, FREQUENCY=99999
PE,PEEQ
*Output, field,variable=PRESELECT
*End Step
**
**-----------------------------------------------------------
**
*Step, name = Step-2, nlgeom = NO
*Static
1., 1., 1e-5, 1
*Dsload
_PickedSurf16,TRVEC,0.5833333333333333, 1.,0.,0.
*EL PRINT, POSITION=AVERAGED AT NODES, ELSET=TrimingE, FREQUENCY=99999
S,MISES
*EL PRINT, POSITION=AVERAGED AT NODES, ELSET=TrimingE, FREQUENCY=99999
PE,PEEQ
*Output, field,variable=PRESELECT
*End Step
**
**-----------------------------------------------------------
**
*Step, name = Step-3, nlgeom = NO
*Static
1., 1., 1e-5, 1
*Dsload
_PickedSurf16,TRVEC,0.8749999999999999, 1.,0.,0.
*EL PRINT, POSITION=AVERAGED AT NODES, ELSET=TrimingE, FREQUENCY=99999
S,MISES
*EL PRINT, POSITION=AVERAGED AT NODES, ELSET=TrimingE, FREQUENCY=99999
PE,PEEQ
*Output, field,variable=PRESELECT
*End Step
**
**-----------------------------------------------------------
**
*Step, name = Step-4, nlgeom = NO
*Static
1., 1., 1e-5, 1
*Dsload
_PickedSurf16,TRVEC,1.1666666666666665, 1.,0.,0.
*EL PRINT, POSITION=AVERAGED AT NODES, ELSET=TrimingE, FREQUENCY=99999
S,MISES
*EL PRINT, POSITION=AVERAGED AT NODES, ELSET=TrimingE, FREQUENCY=99999
PE,PEEQ
*Output, field,variable=PRESELECT
*End Step
**
**-----------------------------------------------------------
**
*Step, name = Step-5, nlgeom = NO
*Static
1., 1., 1e-5, 1
*Dsload
_PickedSurf16,TRVEC,1.458333333333333, 1.,0.,0.
*EL PRINT, POSITION=AVERAGED AT NODES, ELSET=TrimingE, FREQUENCY=99999
S,MISES
*EL PRINT, POSITION=AVERAGED AT NODES, ELSET=TrimingE, FREQUENCY=99999
PE,PEEQ
*Output, field,variable=PRESELECT
*End Step
**
**-----------------------------------------------------------
**
*Step, name = Step-6, nlgeom = NO
*Static
1., 1., 1e-5, 1
*Dsload
_PickedSurf16,TRVEC,1.7499999999999998, 1.,0.,0.
*EL PRINT, POSITION=AVERAGED AT NODES, ELSET=TrimingE, FREQUENCY=99999
S,MISES
*EL PRINT, POSITION=AVERAGED AT NODES, ELSET=TrimingE, FREQUENCY=99999
PE,PEEQ
*Output, field,variable=PRESELECT
*End Step
**
**-----------------------------------------------------------
**
*Step, name = Step-7, nlgeom = NO
*Static
1., 1., 1e-5, 1
*Dsload
_PickedSurf16,TRVEC,2.0416666666666665, 1.,0.,0.
*EL PRINT, POSITION=AVERAGED AT NODES, ELSET=TrimingE, FREQUENCY=99999
S,MISES
*EL PRINT, POSITION=AVERAGED AT NODES, ELSET=TrimingE, FREQUENCY=99999
PE,PEEQ
*Output, field,variable=PRESELECT
*End Step
**
**-----------------------------------------------------------
**
*Step, name = Step-8, nlgeom = NO
*Static
1., 1., 1e-5, 1
*Dsload
_PickedSurf16,TRVEC,2.333333333333333, 1.,0.,0.
*EL PRINT, POSITION=AVERAGED AT NODES, ELSET=TrimingE, FREQUENCY=99999
S,MISES
*EL PRINT, POSITION=AVERAGED AT NODES, ELSET=TrimingE, FREQUENCY=99999
PE,PEEQ
*Output, field,variable=PRESELECT
*End Step
**
**-----------------------------------------------------------
**
*Step, name = Step-9, nlgeom = NO
*Static
1., 1., 1e-5, 1
*Dsload
_PickedSurf16,TRVEC,2.6249999999999996, 1.,0.,0.
*EL PRINT, POSITION=AVERAGED AT NODES, ELSET=TrimingE, FREQUENCY=99999
S,MISES
*EL PRINT, POSITION=AVERAGED AT NODES, ELSET=TrimingE, FREQUENCY=99999
PE,PEEQ
*Output, field,variable=PRESELECT
*End Step
**
**-----------------------------------------------------------
**
*Step, name = Step-10, nlgeom = NO
*Static
1., 1., 1e-5, 1
*Dsload
_PickedSurf16,TRVEC,2.916666666666666, 1.,0.,0.
*EL PRINT, POSITION=AVERAGED AT NODES, ELSET=TrimingE, FREQUENCY=99999
S,MISES
*EL PRINT, POSITION=AVERAGED AT NODES, ELSET=TrimingE, FREQUENCY=99999
PE,PEEQ
*Output, field,variable=PRESELECT
*End Step
**
**-----------------------------------------------------------
**
*Step, name = Step-11, nlgeom = NO
*Static
1., 1., 1e-5, 1
*Dsload
_PickedSurf16,TRVEC,3.208333333333333, 1.,0.,0.
*EL PRINT, POSITION=AVERAGED AT NODES, ELSET=TrimingE, FREQUENCY=99999
S,MISES
*EL PRINT, POSITION=AVERAGED AT NODES, ELSET=TrimingE, FREQUENCY=99999
PE,PEEQ
*Output, field,variable=PRESELECT
*End Step
**
**-----------------------------------------------------------
**
*Step, name = Step-12, nlgeom = NO
*Static
1., 1., 1e-5, 1
*Dsload
_PickedSurf16,TRVEC,3.4999999999999996, 1.,0.,0.
*EL PRINT, POSITION=AVERAGED AT NODES, ELSET=TrimingE, FREQUENCY=99999
S,MISES
*EL PRINT, POSITION=AVERAGED AT NODES, ELSET=TrimingE, FREQUENCY=99999
PE,PEEQ
*Output, field,variable=PRESELECT
*End Step
**
**-----------------------------------------------------------
**
*Step, name = Step-13, nlgeom = NO
*Static
1., 1., 1e-5, 1
*Dsload
_PickedSurf16,TRVEC,3.791666666666666, 1.,0.,0.
*EL PRINT, POSITION=AVERAGED AT NODES, ELSET=TrimingE, FREQUENCY=99999
S,MISES
*EL PRINT, POSITION=AVERAGED AT NODES, ELSET=TrimingE, FREQUENCY=99999
PE,PEEQ
*Output, field,variable=PRESELECT
*End Step
**
**-----------------------------------------------------------
**
*Step, name = Step-14, nlgeom = NO
*Static
1., 1., 1e-5, 1
*Dsload
_PickedSurf16,TRVEC,4.083333333333333, 1.,0.,0.
*EL PRINT, POSITION=AVERAGED AT NODES, ELSET=TrimingE, FREQUENCY=99999
S,MISES
*EL PRINT, POSITION=AVERAGED AT NODES, ELSET=TrimingE, FREQUENCY=99999
PE,PEEQ
*Output, field,variable=PRESELECT
*End Step
**
**-----------------------------------------------------------
**
*Step, name = Step-15, nlgeom = NO
*Static
1., 1., 1e-5, 1
*Dsload
_PickedSurf16,TRVEC,4.374999999999999, 1.,0.,0.
*EL PRINT, POSITION=AVERAGED AT NODES, ELSET=TrimingE, FREQUENCY=99999
S,MISES
*EL PRINT, POSITION=AVERAGED AT NODES, ELSET=TrimingE, FREQUENCY=99999
PE,PEEQ
*Output, field,variable=PRESELECT
*End Step
**
**-----------------------------------------------------------
**
*Step, name = Step-16, nlgeom = NO
*Static
1., 1., 1e-5, 1
*Dsload
_PickedSurf16,TRVEC,4.666666666666666, 1.,0.,0.
*EL PRINT, POSITION=AVERAGED AT NODES, ELSET=TrimingE, FREQUENCY=99999
S,MISES
*EL PRINT, POSITION=AVERAGED AT NODES, ELSET=TrimingE, FREQUENCY=99999
PE,PEEQ
*Output, field,variable=PRESELECT
*End Step
**
**-----------------------------------------------------------
**
*Step, name = Step-17, nlgeom = NO
*Static
1., 1., 1e-5, 1
*Dsload
_PickedSurf16,TRVEC,4.958333333333333, 1.,0.,0.
*EL PRINT, POSITION=AVERAGED AT NODES, ELSET=TrimingE, FREQUENCY=99999
S,MISES
*EL PRINT, POSITION=AVERAGED AT NODES, ELSET=TrimingE, FREQUENCY=99999
PE,PEEQ
*Output, field,variable=PRESELECT
*End Step
**
**-----------------------------------------------------------
**
*Step, name = Step-18, nlgeom = NO
*Static
1., 1., 1e-5, 1
*Dsload
_PickedSurf16,TRVEC,5.249999999999999, 1.,0.,0.
*EL PRINT, POSITION=AVERAGED AT NODES, ELSET=TrimingE, FREQUENCY=99999
S,MISES
*EL PRINT, POSITION=AVERAGED AT NODES, ELSET=TrimingE, FREQUENCY=99999
PE,PEEQ
*Output, field,variable=PRESELECT
*End Step
**
**-----------------------------------------------------------
**
*Step, name = Step-19, nlgeom = NO
*Static
1., 1., 1e-5, 1
*Dsload
_PickedSurf16,TRVEC,5.541666666666666, 1.,0.,0.
*EL PRINT, POSITION=AVERAGED AT NODES, ELSET=TrimingE, FREQUENCY=99999
S,MISES
*EL PRINT, POSITION=AVERAGED AT NODES, ELSET=TrimingE, FREQUENCY=99999
PE,PEEQ
*Output, field,variable=PRESELECT
*End Step
**
**-----------------------------------------------------------
**
*Step, name = Step-20, nlgeom = NO
*Static
1., 1., 1e-5, 1
*Dsload
_PickedSurf16,TRVEC,5.833333333333332, 1.,0.,0.
*EL PRINT, POSITION=AVERAGED AT NODES, ELSET=TrimingE, FREQUENCY=99999
S,MISES
*EL PRINT, POSITION=AVERAGED AT NODES, ELSET=TrimingE, FREQUENCY=99999
PE,PEEQ
*Output, field,variable=PRESELECT
*End Step
**
**-----------------------------------------------------------
**
*Step, name = Step-21, nlgeom = NO
*Static
1., 1., 1e-5, 1
*Dsload
_PickedSurf16,TRVEC,6.124999999999999, 1.,0.,0.
*EL PRINT, POSITION=AVERAGED AT NODES, ELSET=TrimingE, FREQUENCY=99999
S,MISES
*EL PRINT, POSITION=AVERAGED AT NODES, ELSET=TrimingE, FREQUENCY=99999
PE,PEEQ
*Output, field,variable=PRESELECT
*End Step
**
**-----------------------------------------------------------
**
*Step, name = Step-22, nlgeom = NO
*Static
1., 1., 1e-5, 1
*Dsload
_PickedSurf16,TRVEC,6.416666666666666, 1.,0.,0.
*EL PRINT, POSITION=AVERAGED AT NODES, ELSET=TrimingE, FREQUENCY=99999
S,MISES
*EL PRINT, POSITION=AVERAGED AT NODES, ELSET=TrimingE, FREQUENCY=99999
PE,PEEQ
*Output, field,variable=PRESELECT
*End Step
**
**-----------------------------------------------------------
**
*Step, name = Step-23, nlgeom = NO
*Static
1., 1., 1e-5, 1
*Dsload
_PickedSurf16,TRVEC,6.708333333333332, 1.,0.,0.
*EL PRINT, POSITION=AVERAGED AT NODES, ELSET=TrimingE, FREQUENCY=99999
S,MISES
*EL PRINT, POSITION=AVERAGED AT NODES, ELSET=TrimingE, FREQUENCY=99999
PE,PEEQ
*Output, field,variable=PRESELECT
*End Step
**
**-----------------------------------------------------------
**
*Step, name = Step-24, nlgeom = NO
*Static
1., 1., 1e-5, 1
*Dsload
_PickedSurf16,TRVEC,6.999999999999999, 1.,0.,0.
*EL PRINT, POSITION=AVERAGED AT NODES, ELSET=TrimingE, FREQUENCY=99999
S,MISES
*EL PRINT, POSITION=AVERAGED AT NODES, ELSET=TrimingE, FREQUENCY=99999
PE,PEEQ
*Output, field,variable=PRESELECT
*End Step
**
**-----------------------------------------------------------
**
*Step, name = Step-25, nlgeom = NO
*Static
1., 1., 1e-5, 1
*Dsload
_PickedSurf16,TRVEC,7.291666666666666, 1.,0.,0.
*EL PRINT, POSITION=AVERAGED AT NODES, ELSET=TrimingE, FREQUENCY=99999
S,MISES
*EL PRINT, POSITION=AVERAGED AT NODES, ELSET=TrimingE, FREQUENCY=99999
PE,PEEQ
*Output, field,variable=PRESELECT
*End Step
**
**-----------------------------------------------------------
**
*Step, name = Step-26, nlgeom = NO
*Static
1., 1., 1e-5, 1
*Dsload
_PickedSurf16,TRVEC,7.583333333333332, 1.,0.,0.
*EL PRINT, POSITION=AVERAGED AT NODES, ELSET=TrimingE, FREQUENCY=99999
S,MISES
*EL PRINT, POSITION=AVERAGED AT NODES, ELSET=TrimingE, FREQUENCY=99999
PE,PEEQ
*Output, field,variable=PRESELECT
*End Step
**
**-----------------------------------------------------------
**
*Step, name = Step-27, nlgeom = NO
*Static
1., 1., 1e-5, 1
*Dsload
_PickedSurf16,TRVEC,7.874999999999999, 1.,0.,0.
*EL PRINT, POSITION=AVERAGED AT NODES, ELSET=TrimingE, FREQUENCY=99999
S,MISES
*EL PRINT, POSITION=AVERAGED AT NODES, ELSET=TrimingE, FREQUENCY=99999
PE,PEEQ
*Output, field,variable=PRESELECT
*End Step
**
**-----------------------------------------------------------
**
*Step, name = Step-28, nlgeom = NO
*Static
1., 1., 1e-5, 1
*Dsload
_PickedSurf16,TRVEC,8.166666666666666, 1.,0.,0.
*EL PRINT, POSITION=AVERAGED AT NODES, ELSET=TrimingE, FREQUENCY=99999
S,MISES
*EL PRINT, POSITION=AVERAGED AT NODES, ELSET=TrimingE, FREQUENCY=99999
PE,PEEQ
*Output, field,variable=PRESELECT
*End Step
**
**-----------------------------------------------------------
**
*Step, name = Step-29, nlgeom = NO
*Static
1., 1., 1e-5, 1
*Dsload
_PickedSurf16,TRVEC,8.458333333333332, 1.,0.,0.
*EL PRINT, POSITION=AVERAGED AT NODES, ELSET=TrimingE, FREQUENCY=99999
S,MISES
*EL PRINT, POSITION=AVERAGED AT NODES, ELSET=TrimingE, FREQUENCY=99999
PE,PEEQ
*Output, field,variable=PRESELECT
*End Step
**
**-----------------------------------------------------------
**
*Step, name = Step-30, nlgeom = NO
*Static
1., 1., 1e-5, 1
*Dsload
_PickedSurf16,TRVEC,8.749999999999998, 1.,0.,0.
*EL PRINT, POSITION=AVERAGED AT NODES, ELSET=TrimingE, FREQUENCY=99999
S,MISES
*EL PRINT, POSITION=AVERAGED AT NODES, ELSET=TrimingE, FREQUENCY=99999
PE,PEEQ
*Output, field,variable=PRESELECT
*End Step
**
**-----------------------------------------------------------
**
*Step, name = Step-31, nlgeom = NO
*Static
1., 1., 1e-5, 1
*Dsload
_PickedSurf16,TRVEC,9.041666666666666, 1.,0.,0.
*EL PRINT, POSITION=AVERAGED AT NODES, ELSET=TrimingE, FREQUENCY=99999
S,MISES
*EL PRINT, POSITION=AVERAGED AT NODES, ELSET=TrimingE, FREQUENCY=99999
PE,PEEQ
*Output, field,variable=PRESELECT
*End Step
**
**-----------------------------------------------------------
**
*Step, name = Step-32, nlgeom = NO
*Static
1., 1., 1e-5, 1
*Dsload
_PickedSurf16,TRVEC,9.333333333333332, 1.,0.,0.
*EL PRINT, POSITION=AVERAGED AT NODES, ELSET=TrimingE, FREQUENCY=99999
S,MISES
*EL PRINT, POSITION=AVERAGED AT NODES, ELSET=TrimingE, FREQUENCY=99999
PE,PEEQ
*Output, field,variable=PRESELECT
*End Step
**
**-----------------------------------------------------------
**
*Step, name = Step-33, nlgeom = NO
*Static
1., 1., 1e-5, 1
*Dsload
_PickedSurf16,TRVEC,9.624999999999998, 1.,0.,0.
*EL PRINT, POSITION=AVERAGED AT NODES, ELSET=TrimingE, FREQUENCY=99999
S,MISES
*EL PRINT, POSITION=AVERAGED AT NODES, ELSET=TrimingE, FREQUENCY=99999
PE,PEEQ
*Output, field,variable=PRESELECT
*End Step
**
**-----------------------------------------------------------
**
*Step, name = Step-34, nlgeom = NO
*Static
1., 1., 1e-5, 1
*Dsload
_PickedSurf16,TRVEC,9.916666666666666, 1.,0.,0.
*EL PRINT, POSITION=AVERAGED AT NODES, ELSET=TrimingE, FREQUENCY=99999
S,MISES
*EL PRINT, POSITION=AVERAGED AT NODES, ELSET=TrimingE, FREQUENCY=99999
PE,PEEQ
*Output, field,variable=PRESELECT
*End Step
**
**-----------------------------------------------------------
**
*Step, name = Step-35, nlgeom = NO
*Static
1., 1., 1e-5, 1
*Dsload
_PickedSurf16,TRVEC,10.208333333333332, 1.,0.,0.
*EL PRINT, POSITION=AVERAGED AT NODES, ELSET=TrimingE, FREQUENCY=99999
S,MISES
*EL PRINT, POSITION=AVERAGED AT NODES, ELSET=TrimingE, FREQUENCY=99999
PE,PEEQ
*Output, field,variable=PRESELECT
*End Step
**
**-----------------------------------------------------------
**
*Step, name = Step-36, nlgeom = NO
*Static
1., 1., 1e-5, 1
*Dsload
_PickedSurf16,TRVEC,10.499999999999998, 1.,0.,0.
*EL PRINT, POSITION=AVERAGED AT NODES, ELSET=TrimingE, FREQUENCY=99999
S,MISES
*EL PRINT, POSITION=AVERAGED AT NODES, ELSET=TrimingE, FREQUENCY=99999
PE,PEEQ
*Output, field,variable=PRESELECT
*End Step
**
**-----------------------------------------------------------
**
*Step, name = Step-37, nlgeom = NO
*Static
1., 1., 1e-5, 1
*Dsload
_PickedSurf16,TRVEC,10.791666666666666, 1.,0.,0.
*EL PRINT, POSITION=AVERAGED AT NODES, ELSET=TrimingE, FREQUENCY=99999
S,MISES
*EL PRINT, POSITION=AVERAGED AT NODES, ELSET=TrimingE, FREQUENCY=99999
PE,PEEQ
*Output, field,variable=PRESELECT
*End Step
**
**-----------------------------------------------------------
**
*Step, name = Step-38, nlgeom = NO
*Static
1., 1., 1e-5, 1
*Dsload
_PickedSurf16,TRVEC,11.083333333333332, 1.,0.,0.
*EL PRINT, POSITION=AVERAGED AT NODES, ELSET=TrimingE, FREQUENCY=99999
S,MISES
*EL PRINT, POSITION=AVERAGED AT NODES, ELSET=TrimingE, FREQUENCY=99999
PE,PEEQ
*Output, field,variable=PRESELECT
*End Step
**
**-----------------------------------------------------------
**
*Step, name = Step-39, nlgeom = NO
*Static
1., 1., 1e-5, 1
*Dsload
_PickedSurf16,TRVEC,11.374999999999998, 1.,0.,0.
*EL PRINT, POSITION=AVERAGED AT NODES, ELSET=TrimingE, FREQUENCY=99999
S,MISES
*EL PRINT, POSITION=AVERAGED AT NODES, ELSET=TrimingE, FREQUENCY=99999
PE,PEEQ
*Output, field,variable=PRESELECT
*End Step
**
**-----------------------------------------------------------
**
*Step, name = Step-40, nlgeom = NO
*Static
1., 1., 1e-5, 1
*Dsload
_PickedSurf16,TRVEC,11.666666666666664, 1.,0.,0.
*EL PRINT, POSITION=AVERAGED AT NODES, ELSET=TrimingE, FREQUENCY=99999
S,MISES
*EL PRINT, POSITION=AVERAGED AT NODES, ELSET=TrimingE, FREQUENCY=99999
PE,PEEQ
*Output, field,variable=PRESELECT
*End Step
**
**-----------------------------------------------------------
**
*Step, name = Step-41, nlgeom = NO
*Static
1., 1., 1e-5, 1
*Dsload
_PickedSurf16,TRVEC,11.958333333333332, 1.,0.,0.
*EL PRINT, POSITION=AVERAGED AT NODES, ELSET=TrimingE, FREQUENCY=99999
S,MISES
*EL PRINT, POSITION=AVERAGED AT NODES, ELSET=TrimingE, FREQUENCY=99999
PE,PEEQ
*Output, field,variable=PRESELECT
*End Step
**
**-----------------------------------------------------------
**
*Step, name = Step-42, nlgeom = NO
*Static
1., 1., 1e-5, 1
*Dsload
_PickedSurf16,TRVEC,12.249999999999998, 1.,0.,0.
*EL PRINT, POSITION=AVERAGED AT NODES, ELSET=TrimingE, FREQUENCY=99999
S,MISES
*EL PRINT, POSITION=AVERAGED AT NODES, ELSET=TrimingE, FREQUENCY=99999
PE,PEEQ
*Output, field,variable=PRESELECT
*End Step
**
**-----------------------------------------------------------
**
*Step, name = Step-43, nlgeom = NO
*Static
1., 1., 1e-5, 1
*Dsload
_PickedSurf16,TRVEC,12.541666666666664, 1.,0.,0.
*EL PRINT, POSITION=AVERAGED AT NODES, ELSET=TrimingE, FREQUENCY=99999
S,MISES
*EL PRINT, POSITION=AVERAGED AT NODES, ELSET=TrimingE, FREQUENCY=99999
PE,PEEQ
*Output, field,variable=PRESELECT
*End Step
**
**-----------------------------------------------------------
**
*Step, name = Step-44, nlgeom = NO
*Static
1., 1., 1e-5, 1
*Dsload
_PickedSurf16,TRVEC,12.833333333333332, 1.,0.,0.
*EL PRINT, POSITION=AVERAGED AT NODES, ELSET=TrimingE, FREQUENCY=99999
S,MISES
*EL PRINT, POSITION=AVERAGED AT NODES, ELSET=TrimingE, FREQUENCY=99999
PE,PEEQ
*Output, field,variable=PRESELECT
*End Step
**
**-----------------------------------------------------------
**
*Step, name = Step-45, nlgeom = NO
*Static
1., 1., 1e-5, 1
*Dsload
_PickedSurf16,TRVEC,13.124999999999998, 1.,0.,0.
*EL PRINT, POSITION=AVERAGED AT NODES, ELSET=TrimingE, FREQUENCY=99999
S,MISES
*EL PRINT, POSITION=AVERAGED AT NODES, ELSET=TrimingE, FREQUENCY=99999
PE,PEEQ
*Output, field,variable=PRESELECT
*End Step
**
**-----------------------------------------------------------
**
*Step, name = Step-46, nlgeom = NO
*Static
1., 1., 1e-5, 1
*Dsload
_PickedSurf16,TRVEC,13.416666666666664, 1.,0.,0.
*EL PRINT, POSITION=AVERAGED AT NODES, ELSET=TrimingE, FREQUENCY=99999
S,MISES
*EL PRINT, POSITION=AVERAGED AT NODES, ELSET=TrimingE, FREQUENCY=99999
PE,PEEQ
*Output, field,variable=PRESELECT
*End Step
**
**-----------------------------------------------------------
**
*Step, name = Step-47, nlgeom = NO
*Static
1., 1., 1e-5, 1
*Dsload
_PickedSurf16,TRVEC,13.708333333333332, 1.,0.,0.
*EL PRINT, POSITION=AVERAGED AT NODES, ELSET=TrimingE, FREQUENCY=99999
S,MISES
*EL PRINT, POSITION=AVERAGED AT NODES, ELSET=TrimingE, FREQUENCY=99999
PE,PEEQ
*Output, field,variable=PRESELECT
*End Step
**
**-----------------------------------------------------------
**
*Step, name = Step-48, nlgeom = NO
*Static
1., 1., 1e-5, 1
*Dsload
_PickedSurf16,TRVEC,13.999999999999998, 1.,0.,0.
*EL PRINT, POSITION=AVERAGED AT NODES, ELSET=TrimingE, FREQUENCY=99999
S,MISES
*EL PRINT, POSITION=AVERAGED AT NODES, ELSET=TrimingE, FREQUENCY=99999
PE,PEEQ
*Output, field,variable=PRESELECT
*End Step
**
**-----------------------------------------------------------
**
*Step, name = Step-49, nlgeom = NO
*Static
1., 1., 1e-5, 1
*Dsload
_PickedSurf16,TRVEC,14.291666666666664, 1.,0.,0.
*EL PRINT, POSITION=AVERAGED AT NODES, ELSET=TrimingE, FREQUENCY=99999
S,MISES
*EL PRINT, POSITION=AVERAGED AT NODES, ELSET=TrimingE, FREQUENCY=99999
PE,PEEQ
*Output, field,variable=PRESELECT
*End Step
**
**-----------------------------------------------------------
**
*Step, name = Step-50, nlgeom = NO
*Static
1., 1., 1e-5, 1
*Dsload
_PickedSurf16,TRVEC,14.583333333333332, 1.,0.,0.
*EL PRINT, POSITION=AVERAGED AT NODES, ELSET=TrimingE, FREQUENCY=99999
S,MISES
*EL PRINT, POSITION=AVERAGED AT NODES, ELSET=TrimingE, FREQUENCY=99999
PE,PEEQ
*Output, field,variable=PRESELECT
*End Step
**
**-----------------------------------------------------------
**
*Step, name = Step-51, nlgeom = NO
*Static
1., 1., 1e-5, 1
*Dsload
_PickedSurf16,TRVEC,14.874999999999998, 1.,0.,0.
*EL PRINT, POSITION=AVERAGED AT NODES, ELSET=TrimingE, FREQUENCY=99999
S,MISES
*EL PRINT, POSITION=AVERAGED AT NODES, ELSET=TrimingE, FREQUENCY=99999
PE,PEEQ
*Output, field,variable=PRESELECT
*End Step
**
**-----------------------------------------------------------
**
*Step, name = Step-52, nlgeom = NO
*Static
1., 1., 1e-5, 1
*Dsload
_PickedSurf16,TRVEC,15.166666666666664, 1.,0.,0.
*EL PRINT, POSITION=AVERAGED AT NODES, ELSET=TrimingE, FREQUENCY=99999
S,MISES
*EL PRINT, POSITION=AVERAGED AT NODES, ELSET=TrimingE, FREQUENCY=99999
PE,PEEQ
*Output, field,variable=PRESELECT
*End Step
**
**-----------------------------------------------------------
**
*Step, name = Step-53, nlgeom = NO
*Static
1., 1., 1e-5, 1
*Dsload
_PickedSurf16,TRVEC,15.458333333333332, 1.,0.,0.
*EL PRINT, POSITION=AVERAGED AT NODES, ELSET=TrimingE, FREQUENCY=99999
S,MISES
*EL PRINT, POSITION=AVERAGED AT NODES, ELSET=TrimingE, FREQUENCY=99999
PE,PEEQ
*Output, field,variable=PRESELECT
*End Step
**
**-----------------------------------------------------------
**
*Step, name = Step-54, nlgeom = NO
*Static
1., 1., 1e-5, 1
*Dsload
_PickedSurf16,TRVEC,15.749999999999998, 1.,0.,0.
*EL PRINT, POSITION=AVERAGED AT NODES, ELSET=TrimingE, FREQUENCY=99999
S,MISES
*EL PRINT, POSITION=AVERAGED AT NODES, ELSET=TrimingE, FREQUENCY=99999
PE,PEEQ
*Output, field,variable=PRESELECT
*End Step
**
**-----------------------------------------------------------
**
*Step, name = Step-55, nlgeom = NO
*Static
1., 1., 1e-5, 1
*Dsload
_PickedSurf16,TRVEC,16.041666666666664, 1.,0.,0.
*EL PRINT, POSITION=AVERAGED AT NODES, ELSET=TrimingE, FREQUENCY=99999
S,MISES
*EL PRINT, POSITION=AVERAGED AT NODES, ELSET=TrimingE, FREQUENCY=99999
PE,PEEQ
*Output, field,variable=PRESELECT
*End Step
**
**-----------------------------------------------------------
**
*Step, name = Step-56, nlgeom = NO
*Static
1., 1., 1e-5, 1
*Dsload
_PickedSurf16,TRVEC,16.333333333333332, 1.,0.,0.
*EL PRINT, POSITION=AVERAGED AT NODES, ELSET=TrimingE, FREQUENCY=99999
S,MISES
*EL PRINT, POSITION=AVERAGED AT NODES, ELSET=TrimingE, FREQUENCY=99999
PE,PEEQ
*Output, field,variable=PRESELECT
*End Step
**
**-----------------------------------------------------------
**
*Step, name = Step-57, nlgeom = NO
*Static
1., 1., 1e-5, 1
*Dsload
_PickedSurf16,TRVEC,16.624999999999996, 1.,0.,0.
*EL PRINT, POSITION=AVERAGED AT NODES, ELSET=TrimingE, FREQUENCY=99999
S,MISES
*EL PRINT, POSITION=AVERAGED AT NODES, ELSET=TrimingE, FREQUENCY=99999
PE,PEEQ
*Output, field,variable=PRESELECT
*End Step
**
**-----------------------------------------------------------
**
*Step, name = Step-58, nlgeom = NO
*Static
1., 1., 1e-5, 1
*Dsload
_PickedSurf16,TRVEC,16.916666666666664, 1.,0.,0.
*EL PRINT, POSITION=AVERAGED AT NODES, ELSET=TrimingE, FREQUENCY=99999
S,MISES
*EL PRINT, POSITION=AVERAGED AT NODES, ELSET=TrimingE, FREQUENCY=99999
PE,PEEQ
*Output, field,variable=PRESELECT
*End Step
**
**-----------------------------------------------------------
**
*Step, name = Step-59, nlgeom = NO
*Static
1., 1., 1e-5, 1
*Dsload
_PickedSurf16,TRVEC,17.208333333333332, 1.,0.,0.
*EL PRINT, POSITION=AVERAGED AT NODES, ELSET=TrimingE, FREQUENCY=99999
S,MISES
*EL PRINT, POSITION=AVERAGED AT NODES, ELSET=TrimingE, FREQUENCY=99999
PE,PEEQ
*Output, field,variable=PRESELECT
*End Step
**
**-----------------------------------------------------------
**
*Step, name = Step-60, nlgeom = NO
*Static
1., 1., 1e-5, 1
*Dsload
_PickedSurf16,TRVEC,17.499999999999996, 1.,0.,0.
*EL PRINT, POSITION=AVERAGED AT NODES, ELSET=TrimingE, FREQUENCY=99999
S,MISES
*EL PRINT, POSITION=AVERAGED AT NODES, ELSET=TrimingE, FREQUENCY=99999
PE,PEEQ
*Output, field,variable=PRESELECT
*End Step
**
**-----------------------------------------------------------
**
*Step, name = Step-61, nlgeom = NO
*Static
1., 1., 1e-5, 1
*Dsload
_PickedSurf16,TRVEC,17.791666666666664, 1.,0.,0.
*EL PRINT, POSITION=AVERAGED AT NODES, ELSET=TrimingE, FREQUENCY=99999
S,MISES
*EL PRINT, POSITION=AVERAGED AT NODES, ELSET=TrimingE, FREQUENCY=99999
PE,PEEQ
*Output, field,variable=PRESELECT
*End Step
**
**-----------------------------------------------------------
**
*Step, name = Step-62, nlgeom = NO
*Static
1., 1., 1e-5, 1
*Dsload
_PickedSurf16,TRVEC,18.083333333333332, 1.,0.,0.
*EL PRINT, POSITION=AVERAGED AT NODES, ELSET=TrimingE, FREQUENCY=99999
S,MISES
*EL PRINT, POSITION=AVERAGED AT NODES, ELSET=TrimingE, FREQUENCY=99999
PE,PEEQ
*Output, field,variable=PRESELECT
*End Step
**
**-----------------------------------------------------------
**
*Step, name = Step-63, nlgeom = NO
*Static
1., 1., 1e-5, 1
*Dsload
_PickedSurf16,TRVEC,18.374999999999996, 1.,0.,0.
*EL PRINT, POSITION=AVERAGED AT NODES, ELSET=TrimingE, FREQUENCY=99999
S,MISES
*EL PRINT, POSITION=AVERAGED AT NODES, ELSET=TrimingE, FREQUENCY=99999
PE,PEEQ
*Output, field,variable=PRESELECT
*End Step
**
**-----------------------------------------------------------
**
*Step, name = Step-64, nlgeom = NO
*Static
1., 1., 1e-5, 1
*Dsload
_PickedSurf16,TRVEC,18.666666666666664, 1.,0.,0.
*EL PRINT, POSITION=AVERAGED AT NODES, ELSET=TrimingE, FREQUENCY=99999
S,MISES
*EL PRINT, POSITION=AVERAGED AT NODES, ELSET=TrimingE, FREQUENCY=99999
PE,PEEQ
*Output, field,variable=PRESELECT
*End Step
**
**-----------------------------------------------------------
**
*Step, name = Step-65, nlgeom = NO
*Static
1., 1., 1e-5, 1
*Dsload
_PickedSurf16,TRVEC,18.958333333333332, 1.,0.,0.
*EL PRINT, POSITION=AVERAGED AT NODES, ELSET=TrimingE, FREQUENCY=99999
S,MISES
*EL PRINT, POSITION=AVERAGED AT NODES, ELSET=TrimingE, FREQUENCY=99999
PE,PEEQ
*Output, field,variable=PRESELECT
*End Step
**
**-----------------------------------------------------------
**
*Step, name = Step-66, nlgeom = NO
*Static
1., 1., 1e-5, 1
*Dsload
_PickedSurf16,TRVEC,19.249999999999996, 1.,0.,0.
*EL PRINT, POSITION=AVERAGED AT NODES, ELSET=TrimingE, FREQUENCY=99999
S,MISES
*EL PRINT, POSITION=AVERAGED AT NODES, ELSET=TrimingE, FREQUENCY=99999
PE,PEEQ
*Output, field,variable=PRESELECT
*End Step
**
**-----------------------------------------------------------
**
*Step, name = Step-67, nlgeom = NO
*Static
1., 1., 1e-5, 1
*Dsload
_PickedSurf16,TRVEC,19.541666666666664, 1.,0.,0.
*EL PRINT, POSITION=AVERAGED AT NODES, ELSET=TrimingE, FREQUENCY=99999
S,MISES
*EL PRINT, POSITION=AVERAGED AT NODES, ELSET=TrimingE, FREQUENCY=99999
PE,PEEQ
*Output, field,variable=PRESELECT
*End Step
**
**-----------------------------------------------------------
**
*Step, name = Step-68, nlgeom = NO
*Static
1., 1., 1e-5, 1
*Dsload
_PickedSurf16,TRVEC,19.833333333333332, 1.,0.,0.
*EL PRINT, POSITION=AVERAGED AT NODES, ELSET=TrimingE, FREQUENCY=99999
S,MISES
*EL PRINT, POSITION=AVERAGED AT NODES, ELSET=TrimingE, FREQUENCY=99999
PE,PEEQ
*Output, field,variable=PRESELECT
*End Step
**
**-----------------------------------------------------------
**
*Step, name = Step-69, nlgeom = NO
*Static
1., 1., 1e-5, 1
*Dsload
_PickedSurf16,TRVEC,20.124999999999996, 1.,0.,0.
*EL PRINT, POSITION=AVERAGED AT NODES, ELSET=TrimingE, FREQUENCY=99999
S,MISES
*EL PRINT, POSITION=AVERAGED AT NODES, ELSET=TrimingE, FREQUENCY=99999
PE,PEEQ
*Output, field,variable=PRESELECT
*End Step
**
**-----------------------------------------------------------
**
*Step, name = Step-70, nlgeom = NO
*Static
1., 1., 1e-5, 1
*Dsload
_PickedSurf16,TRVEC,20.416666666666664, 1.,0.,0.
*EL PRINT, POSITION=AVERAGED AT NODES, ELSET=TrimingE, FREQUENCY=99999
S,MISES
*EL PRINT, POSITION=AVERAGED AT NODES, ELSET=TrimingE, FREQUENCY=99999
PE,PEEQ
*Output, field,variable=PRESELECT
*End Step
**
**-----------------------------------------------------------
**
*Step, name = Step-71, nlgeom = NO
*Static
1., 1., 1e-5, 1
*Dsload
_PickedSurf16,TRVEC,20.708333333333332, 1.,0.,0.
*EL PRINT, POSITION=AVERAGED AT NODES, ELSET=TrimingE, FREQUENCY=99999
S,MISES
*EL PRINT, POSITION=AVERAGED AT NODES, ELSET=TrimingE, FREQUENCY=99999
PE,PEEQ
*Output, field,variable=PRESELECT
*End Step
**
**-----------------------------------------------------------
**
*Step, name = Step-72, nlgeom = NO
*Static
1., 1., 1e-5, 1
*Dsload
_PickedSurf16,TRVEC,20.999999999999996, 1.,0.,0.
*EL PRINT, POSITION=AVERAGED AT NODES, ELSET=TrimingE, FREQUENCY=99999
S,MISES
*EL PRINT, POSITION=AVERAGED AT NODES, ELSET=TrimingE, FREQUENCY=99999
PE,PEEQ
*Output, field,variable=PRESELECT
*End Step
**
**-----------------------------------------------------------
**
*Step, name = Step-73, nlgeom = NO
*Static
1., 1., 1e-5, 1
*Dsload
_PickedSurf16,TRVEC,21.291666666666664, 1.,0.,0.
*EL PRINT, POSITION=AVERAGED AT NODES, ELSET=TrimingE, FREQUENCY=99999
S,MISES
*EL PRINT, POSITION=AVERAGED AT NODES, ELSET=TrimingE, FREQUENCY=99999
PE,PEEQ
*Output, field,variable=PRESELECT
*End Step
**
**-----------------------------------------------------------
**
*Step, name = Step-74, nlgeom = NO
*Static
1., 1., 1e-5, 1
*Dsload
_PickedSurf16,TRVEC,21.583333333333332, 1.,0.,0.
*EL PRINT, POSITION=AVERAGED AT NODES, ELSET=TrimingE, FREQUENCY=99999
S,MISES
*EL PRINT, POSITION=AVERAGED AT NODES, ELSET=TrimingE, FREQUENCY=99999
PE,PEEQ
*Output, field,variable=PRESELECT
*End Step
**
**-----------------------------------------------------------
**
*Step, name = Step-75, nlgeom = NO
*Static
1., 1., 1e-5, 1
*Dsload
_PickedSurf16,TRVEC,21.874999999999996, 1.,0.,0.
*EL PRINT, POSITION=AVERAGED AT NODES, ELSET=TrimingE, FREQUENCY=99999
S,MISES
*EL PRINT, POSITION=AVERAGED AT NODES, ELSET=TrimingE, FREQUENCY=99999
PE,PEEQ
*Output, field,variable=PRESELECT
*End Step
**
**-----------------------------------------------------------
**
*Step, name = Step-76, nlgeom = NO
*Static
1., 1., 1e-5, 1
*Dsload
_PickedSurf16,TRVEC,22.166666666666664, 1.,0.,0.
*EL PRINT, POSITION=AVERAGED AT NODES, ELSET=TrimingE, FREQUENCY=99999
S,MISES
*EL PRINT, POSITION=AVERAGED AT NODES, ELSET=TrimingE, FREQUENCY=99999
PE,PEEQ
*Output, field,variable=PRESELECT
*End Step
**
**-----------------------------------------------------------
**
*Step, name = Step-77, nlgeom = NO
*Static
1., 1., 1e-5, 1
*Dsload
_PickedSurf16,TRVEC,22.458333333333332, 1.,0.,0.
*EL PRINT, POSITION=AVERAGED AT NODES, ELSET=TrimingE, FREQUENCY=99999
S,MISES
*EL PRINT, POSITION=AVERAGED AT NODES, ELSET=TrimingE, FREQUENCY=99999
PE,PEEQ
*Output, field,variable=PRESELECT
*End Step
**
**-----------------------------------------------------------
**
*Step, name = Step-78, nlgeom = NO
*Static
1., 1., 1e-5, 1
*Dsload
_PickedSurf16,TRVEC,22.749999999999996, 1.,0.,0.
*EL PRINT, POSITION=AVERAGED AT NODES, ELSET=TrimingE, FREQUENCY=99999
S,MISES
*EL PRINT, POSITION=AVERAGED AT NODES, ELSET=TrimingE, FREQUENCY=99999
PE,PEEQ
*Output, field,variable=PRESELECT
*End Step
**
**-----------------------------------------------------------
**
*Step, name = Step-79, nlgeom = NO
*Static
1., 1., 1e-5, 1
*Dsload
_PickedSurf16,TRVEC,23.041666666666664, 1.,0.,0.
*EL PRINT, POSITION=AVERAGED AT NODES, ELSET=TrimingE, FREQUENCY=99999
S,MISES
*EL PRINT, POSITION=AVERAGED AT NODES, ELSET=TrimingE, FREQUENCY=99999
PE,PEEQ
*Output, field,variable=PRESELECT
*End Step
**
**-----------------------------------------------------------
**
*Step, name = Step-80, nlgeom = NO
*Static
1., 1., 1e-5, 1
*Dsload
_PickedSurf16,TRVEC,23.33333333333333, 1.,0.,0.
*EL PRINT, POSITION=AVERAGED AT NODES, ELSET=TrimingE, FREQUENCY=99999
S,MISES
*EL PRINT, POSITION=AVERAGED AT NODES, ELSET=TrimingE, FREQUENCY=99999
PE,PEEQ
*Output, field,variable=PRESELECT
*End Step
**
**-----------------------------------------------------------
**
*Step, name = Step-81, nlgeom = NO
*Static
1., 1., 1e-5, 1
*Dsload
_PickedSurf16,TRVEC,23.624999999999996, 1.,0.,0.
*EL PRINT, POSITION=AVERAGED AT NODES, ELSET=TrimingE, FREQUENCY=99999
S,MISES
*EL PRINT, POSITION=AVERAGED AT NODES, ELSET=TrimingE, FREQUENCY=99999
PE,PEEQ
*Output, field,variable=PRESELECT
*End Step
**
**-----------------------------------------------------------
**
*Step, name = Step-82, nlgeom = NO
*Static
1., 1., 1e-5, 1
*Dsload
_PickedSurf16,TRVEC,23.916666666666664, 1.,0.,0.
*EL PRINT, POSITION=AVERAGED AT NODES, ELSET=TrimingE, FREQUENCY=99999
S,MISES
*EL PRINT, POSITION=AVERAGED AT NODES, ELSET=TrimingE, FREQUENCY=99999
PE,PEEQ
*Output, field,variable=PRESELECT
*End Step
**
**-----------------------------------------------------------
**
*Step, name = Step-83, nlgeom = NO
*Static
1., 1., 1e-5, 1
*Dsload
_PickedSurf16,TRVEC,24.20833333333333, 1.,0.,0.
*EL PRINT, POSITION=AVERAGED AT NODES, ELSET=TrimingE, FREQUENCY=99999
S,MISES
*EL PRINT, POSITION=AVERAGED AT NODES, ELSET=TrimingE, FREQUENCY=99999
PE,PEEQ
*Output, field,variable=PRESELECT
*End Step
**
**-----------------------------------------------------------
**
*Step, name = Step-84, nlgeom = NO
*Static
1., 1., 1e-5, 1
*Dsload
_PickedSurf16,TRVEC,24.499999999999996, 1.,0.,0.
*EL PRINT, POSITION=AVERAGED AT NODES, ELSET=TrimingE, FREQUENCY=99999
S,MISES
*EL PRINT, POSITION=AVERAGED AT NODES, ELSET=TrimingE, FREQUENCY=99999
PE,PEEQ
*Output, field,variable=PRESELECT
*End Step
**
**-----------------------------------------------------------
**
*Step, name = Step-85, nlgeom = NO
*Static
1., 1., 1e-5, 1
*Dsload
_PickedSurf16,TRVEC,24.791666666666664, 1.,0.,0.
*EL PRINT, POSITION=AVERAGED AT NODES, ELSET=TrimingE, FREQUENCY=99999
S,MISES
*EL PRINT, POSITION=AVERAGED AT NODES, ELSET=TrimingE, FREQUENCY=99999
PE,PEEQ
*Output, field,variable=PRESELECT
*End Step
**
**-----------------------------------------------------------
**
*Step, name = Step-86, nlgeom = NO
*Static
1., 1., 1e-5, 1
*Dsload
_PickedSurf16,TRVEC,25.08333333333333, 1.,0.,0.
*EL PRINT, POSITION=AVERAGED AT NODES, ELSET=TrimingE, FREQUENCY=99999
S,MISES
*EL PRINT, POSITION=AVERAGED AT NODES, ELSET=TrimingE, FREQUENCY=99999
PE,PEEQ
*Output, field,variable=PRESELECT
*End Step
**
**-----------------------------------------------------------
**
*Step, name = Step-87, nlgeom = NO
*Static
1., 1., 1e-5, 1
*Dsload
_PickedSurf16,TRVEC,25.374999999999996, 1.,0.,0.
*EL PRINT, POSITION=AVERAGED AT NODES, ELSET=TrimingE, FREQUENCY=99999
S,MISES
*EL PRINT, POSITION=AVERAGED AT NODES, ELSET=TrimingE, FREQUENCY=99999
PE,PEEQ
*Output, field,variable=PRESELECT
*End Step
**
**-----------------------------------------------------------
**
*Step, name = Step-88, nlgeom = NO
*Static
1., 1., 1e-5, 1
*Dsload
_PickedSurf16,TRVEC,25.666666666666664, 1.,0.,0.
*EL PRINT, POSITION=AVERAGED AT NODES, ELSET=TrimingE, FREQUENCY=99999
S,MISES
*EL PRINT, POSITION=AVERAGED AT NODES, ELSET=TrimingE, FREQUENCY=99999
PE,PEEQ
*Output, field,variable=PRESELECT
*End Step
**
**-----------------------------------------------------------
**
*Step, name = Step-89, nlgeom = NO
*Static
1., 1., 1e-5, 1
*Dsload
_PickedSurf16,TRVEC,25.95833333333333, 1.,0.,0.
*EL PRINT, POSITION=AVERAGED AT NODES, ELSET=TrimingE, FREQUENCY=99999
S,MISES
*EL PRINT, POSITION=AVERAGED AT NODES, ELSET=TrimingE, FREQUENCY=99999
PE,PEEQ
*Output, field,variable=PRESELECT
*End Step
**
**-----------------------------------------------------------
**
*Step, name = Step-90, nlgeom = NO
*Static
1., 1., 1e-5, 1
*Dsload
_PickedSurf16,TRVEC,26.249999999999996, 1.,0.,0.
*EL PRINT, POSITION=AVERAGED AT NODES, ELSET=TrimingE, FREQUENCY=99999
S,MISES
*EL PRINT, POSITION=AVERAGED AT NODES, ELSET=TrimingE, FREQUENCY=99999
PE,PEEQ
*Output, field,variable=PRESELECT
*End Step
**
**-----------------------------------------------------------
**
*Step, name = Step-91, nlgeom = NO
*Static
1., 1., 1e-5, 1
*Dsload
_PickedSurf16,TRVEC,26.541666666666664, 1.,0.,0.
*EL PRINT, POSITION=AVERAGED AT NODES, ELSET=TrimingE, FREQUENCY=99999
S,MISES
*EL PRINT, POSITION=AVERAGED AT NODES, ELSET=TrimingE, FREQUENCY=99999
PE,PEEQ
*Output, field,variable=PRESELECT
*End Step
**
**-----------------------------------------------------------
**
*Step, name = Step-92, nlgeom = NO
*Static
1., 1., 1e-5, 1
*Dsload
_PickedSurf16,TRVEC,26.83333333333333, 1.,0.,0.
*EL PRINT, POSITION=AVERAGED AT NODES, ELSET=TrimingE, FREQUENCY=99999
S,MISES
*EL PRINT, POSITION=AVERAGED AT NODES, ELSET=TrimingE, FREQUENCY=99999
PE,PEEQ
*Output, field,variable=PRESELECT
*End Step
**
**-----------------------------------------------------------
**
*Step, name = Step-93, nlgeom = NO
*Static
1., 1., 1e-5, 1
*Dsload
_PickedSurf16,TRVEC,27.124999999999996, 1.,0.,0.
*EL PRINT, POSITION=AVERAGED AT NODES, ELSET=TrimingE, FREQUENCY=99999
S,MISES
*EL PRINT, POSITION=AVERAGED AT NODES, ELSET=TrimingE, FREQUENCY=99999
PE,PEEQ
*Output, field,variable=PRESELECT
*End Step
**
**-----------------------------------------------------------
**
*Step, name = Step-94, nlgeom = NO
*Static
1., 1., 1e-5, 1
*Dsload
_PickedSurf16,TRVEC,27.416666666666664, 1.,0.,0.
*EL PRINT, POSITION=AVERAGED AT NODES, ELSET=TrimingE, FREQUENCY=99999
S,MISES
*EL PRINT, POSITION=AVERAGED AT NODES, ELSET=TrimingE, FREQUENCY=99999
PE,PEEQ
*Output, field,variable=PRESELECT
*End Step
**
**-----------------------------------------------------------
**
*Step, name = Step-95, nlgeom = NO
*Static
1., 1., 1e-5, 1
*Dsload
_PickedSurf16,TRVEC,27.70833333333333, 1.,0.,0.
*EL PRINT, POSITION=AVERAGED AT NODES, ELSET=TrimingE, FREQUENCY=99999
S,MISES
*EL PRINT, POSITION=AVERAGED AT NODES, ELSET=TrimingE, FREQUENCY=99999
PE,PEEQ
*Output, field,variable=PRESELECT
*End Step
**
**-----------------------------------------------------------
**
*Step, name = Step-96, nlgeom = NO
*Static
1., 1., 1e-5, 1
*Dsload
_PickedSurf16,TRVEC,27.999999999999996, 1.,0.,0.
*EL PRINT, POSITION=AVERAGED AT NODES, ELSET=TrimingE, FREQUENCY=99999
S,MISES
*EL PRINT, POSITION=AVERAGED AT NODES, ELSET=TrimingE, FREQUENCY=99999
PE,PEEQ
*Output, field,variable=PRESELECT
*End Step
**
**-----------------------------------------------------------
**
*Step, name = Step-97, nlgeom = NO
*Static
1., 1., 1e-5, 1
*Dsload
_PickedSurf16,TRVEC,28.291666666666664, 1.,0.,0.
*EL PRINT, POSITION=AVERAGED AT NODES, ELSET=TrimingE, FREQUENCY=99999
S,MISES
*EL PRINT, POSITION=AVERAGED AT NODES, ELSET=TrimingE, FREQUENCY=99999
PE,PEEQ
*Output, field,variable=PRESELECT
*End Step
**
**-----------------------------------------------------------
**
*Step, name = Step-98, nlgeom = NO
*Static
1., 1., 1e-5, 1
*Dsload
_PickedSurf16,TRVEC,28.58333333333333, 1.,0.,0.
*EL PRINT, POSITION=AVERAGED AT NODES, ELSET=TrimingE, FREQUENCY=99999
S,MISES
*EL PRINT, POSITION=AVERAGED AT NODES, ELSET=TrimingE, FREQUENCY=99999
PE,PEEQ
*Output, field,variable=PRESELECT
*End Step
**
**-----------------------------------------------------------
**
*Step, name = Step-99, nlgeom = NO
*Static
1., 1., 1e-5, 1
*Dsload
_PickedSurf16,TRVEC,28.874999999999996, 1.,0.,0.
*EL PRINT, POSITION=AVERAGED AT NODES, ELSET=TrimingE, FREQUENCY=99999
S,MISES
*EL PRINT, POSITION=AVERAGED AT NODES, ELSET=TrimingE, FREQUENCY=99999
PE,PEEQ
*Output, field,variable=PRESELECT
*End Step
**
**-----------------------------------------------------------
**
*Step, name = Step-100, nlgeom = NO
*Static
1., 1., 1e-5, 1
*Dsload
_PickedSurf16,TRVEC,29.166666666666664, 1.,0.,0.
*EL PRINT, POSITION=AVERAGED AT NODES, ELSET=TrimingE, FREQUENCY=99999
S,MISES
*EL PRINT, POSITION=AVERAGED AT NODES, ELSET=TrimingE, FREQUENCY=99999
PE,PEEQ
*Output, field,variable=PRESELECT
*End Step
**
**-----------------------------------------------------------
**
*Step, name = Step-101, nlgeom = NO
*Static
1., 1., 1e-5, 1
*Dsload
_PickedSurf16,TRVEC,29.45833333333333, 1.,0.,0.
*EL PRINT, POSITION=AVERAGED AT NODES, ELSET=TrimingE, FREQUENCY=99999
S,MISES
*EL PRINT, POSITION=AVERAGED AT NODES, ELSET=TrimingE, FREQUENCY=99999
PE,PEEQ
*Output, field,variable=PRESELECT
*End Step
**
**-----------------------------------------------------------
**
*Step, name = Step-102, nlgeom = NO
*Static
1., 1., 1e-5, 1
*Dsload
_PickedSurf16,TRVEC,29.749999999999996, 1.,0.,0.
*EL PRINT, POSITION=AVERAGED AT NODES, ELSET=TrimingE, FREQUENCY=99999
S,MISES
*EL PRINT, POSITION=AVERAGED AT NODES, ELSET=TrimingE, FREQUENCY=99999
PE,PEEQ
*Output, field,variable=PRESELECT
*End Step
**
**-----------------------------------------------------------
**
*Step, name = Step-103, nlgeom = NO
*Static
1., 1., 1e-5, 1
*Dsload
_PickedSurf16,TRVEC,30.041666666666664, 1.,0.,0.
*EL PRINT, POSITION=AVERAGED AT NODES, ELSET=TrimingE, FREQUENCY=99999
S,MISES
*EL PRINT, POSITION=AVERAGED AT NODES, ELSET=TrimingE, FREQUENCY=99999
PE,PEEQ
*Output, field,variable=PRESELECT
*End Step
**
**-----------------------------------------------------------
**
*Step, name = Step-104, nlgeom = NO
*Static
1., 1., 1e-5, 1
*Dsload
_PickedSurf16,TRVEC,30.33333333333333, 1.,0.,0.
*EL PRINT, POSITION=AVERAGED AT NODES, ELSET=TrimingE, FREQUENCY=99999
S,MISES
*EL PRINT, POSITION=AVERAGED AT NODES, ELSET=TrimingE, FREQUENCY=99999
PE,PEEQ
*Output, field,variable=PRESELECT
*End Step
**
**-----------------------------------------------------------
**
*Step, name = Step-105, nlgeom = NO
*Static
1., 1., 1e-5, 1
*Dsload
_PickedSurf16,TRVEC,30.624999999999996, 1.,0.,0.
*EL PRINT, POSITION=AVERAGED AT NODES, ELSET=TrimingE, FREQUENCY=99999
S,MISES
*EL PRINT, POSITION=AVERAGED AT NODES, ELSET=TrimingE, FREQUENCY=99999
PE,PEEQ
*Output, field,variable=PRESELECT
*End Step
**
**-----------------------------------------------------------
**
*Step, name = Step-106, nlgeom = NO
*Static
1., 1., 1e-5, 1
*Dsload
_PickedSurf16,TRVEC,30.916666666666664, 1.,0.,0.
*EL PRINT, POSITION=AVERAGED AT NODES, ELSET=TrimingE, FREQUENCY=99999
S,MISES
*EL PRINT, POSITION=AVERAGED AT NODES, ELSET=TrimingE, FREQUENCY=99999
PE,PEEQ
*Output, field,variable=PRESELECT
*End Step
**
**-----------------------------------------------------------
**
*Step, name = Step-107, nlgeom = NO
*Static
1., 1., 1e-5, 1
*Dsload
_PickedSurf16,TRVEC,31.20833333333333, 1.,0.,0.
*EL PRINT, POSITION=AVERAGED AT NODES, ELSET=TrimingE, FREQUENCY=99999
S,MISES
*EL PRINT, POSITION=AVERAGED AT NODES, ELSET=TrimingE, FREQUENCY=99999
PE,PEEQ
*Output, field,variable=PRESELECT
*End Step
**
**-----------------------------------------------------------
**
*Step, name = Step-108, nlgeom = NO
*Static
1., 1., 1e-5, 1
*Dsload
_PickedSurf16,TRVEC,31.499999999999996, 1.,0.,0.
*EL PRINT, POSITION=AVERAGED AT NODES, ELSET=TrimingE, FREQUENCY=99999
S,MISES
*EL PRINT, POSITION=AVERAGED AT NODES, ELSET=TrimingE, FREQUENCY=99999
PE,PEEQ
*Output, field,variable=PRESELECT
*End Step
**
**-----------------------------------------------------------
**
*Step, name = Step-109, nlgeom = NO
*Static
1., 1., 1e-5, 1
*Dsload
_PickedSurf16,TRVEC,31.791666666666664, 1.,0.,0.
*EL PRINT, POSITION=AVERAGED AT NODES, ELSET=TrimingE, FREQUENCY=99999
S,MISES
*EL PRINT, POSITION=AVERAGED AT NODES, ELSET=TrimingE, FREQUENCY=99999
PE,PEEQ
*Output, field,variable=PRESELECT
*End Step
**
**-----------------------------------------------------------
**
*Step, name = Step-110, nlgeom = NO
*Static
1., 1., 1e-5, 1
*Dsload
_PickedSurf16,TRVEC,32.08333333333333, 1.,0.,0.
*EL PRINT, POSITION=AVERAGED AT NODES, ELSET=TrimingE, FREQUENCY=99999
S,MISES
*EL PRINT, POSITION=AVERAGED AT NODES, ELSET=TrimingE, FREQUENCY=99999
PE,PEEQ
*Output, field,variable=PRESELECT
*End Step
**
**-----------------------------------------------------------
**
*Step, name = Step-111, nlgeom = NO
*Static
1., 1., 1e-5, 1
*Dsload
_PickedSurf16,TRVEC,32.37499999999999, 1.,0.,0.
*EL PRINT, POSITION=AVERAGED AT NODES, ELSET=TrimingE, FREQUENCY=99999
S,MISES
*EL PRINT, POSITION=AVERAGED AT NODES, ELSET=TrimingE, FREQUENCY=99999
PE,PEEQ
*Output, field,variable=PRESELECT
*End Step
**
**-----------------------------------------------------------
**
*Step, name = Step-112, nlgeom = NO
*Static
1., 1., 1e-5, 1
*Dsload
_PickedSurf16,TRVEC,32.666666666666664, 1.,0.,0.
*EL PRINT, POSITION=AVERAGED AT NODES, ELSET=TrimingE, FREQUENCY=99999
S,MISES
*EL PRINT, POSITION=AVERAGED AT NODES, ELSET=TrimingE, FREQUENCY=99999
PE,PEEQ
*Output, field,variable=PRESELECT
*End Step
**
**-----------------------------------------------------------
**
*Step, name = Step-113, nlgeom = NO
*Static
1., 1., 1e-5, 1
*Dsload
_PickedSurf16,TRVEC,32.95833333333333, 1.,0.,0.
*EL PRINT, POSITION=AVERAGED AT NODES, ELSET=TrimingE, FREQUENCY=99999
S,MISES
*EL PRINT, POSITION=AVERAGED AT NODES, ELSET=TrimingE, FREQUENCY=99999
PE,PEEQ
*Output, field,variable=PRESELECT
*End Step
**
**-----------------------------------------------------------
**
*Step, name = Step-114, nlgeom = NO
*Static
1., 1., 1e-5, 1
*Dsload
_PickedSurf16,TRVEC,33.24999999999999, 1.,0.,0.
*EL PRINT, POSITION=AVERAGED AT NODES, ELSET=TrimingE, FREQUENCY=99999
S,MISES
*EL PRINT, POSITION=AVERAGED AT NODES, ELSET=TrimingE, FREQUENCY=99999
PE,PEEQ
*Output, field,variable=PRESELECT
*End Step
**
**-----------------------------------------------------------
**
*Step, name = Step-115, nlgeom = NO
*Static
1., 1., 1e-5, 1
*Dsload
_PickedSurf16,TRVEC,33.541666666666664, 1.,0.,0.
*EL PRINT, POSITION=AVERAGED AT NODES, ELSET=TrimingE, FREQUENCY=99999
S,MISES
*EL PRINT, POSITION=AVERAGED AT NODES, ELSET=TrimingE, FREQUENCY=99999
PE,PEEQ
*Output, field,variable=PRESELECT
*End Step
**
**-----------------------------------------------------------
**
*Step, name = Step-116, nlgeom = NO
*Static
1., 1., 1e-5, 1
*Dsload
_PickedSurf16,TRVEC,33.83333333333333, 1.,0.,0.
*EL PRINT, POSITION=AVERAGED AT NODES, ELSET=TrimingE, FREQUENCY=99999
S,MISES
*EL PRINT, POSITION=AVERAGED AT NODES, ELSET=TrimingE, FREQUENCY=99999
PE,PEEQ
*Output, field,variable=PRESELECT
*End Step
**
**-----------------------------------------------------------
**
*Step, name = Step-117, nlgeom = NO
*Static
1., 1., 1e-5, 1
*Dsload
_PickedSurf16,TRVEC,34.12499999999999, 1.,0.,0.
*EL PRINT, POSITION=AVERAGED AT NODES, ELSET=TrimingE, FREQUENCY=99999
S,MISES
*EL PRINT, POSITION=AVERAGED AT NODES, ELSET=TrimingE, FREQUENCY=99999
PE,PEEQ
*Output, field,variable=PRESELECT
*End Step
**
**-----------------------------------------------------------
**
*Step, name = Step-118, nlgeom = NO
*Static
1., 1., 1e-5, 1
*Dsload
_PickedSurf16,TRVEC,34.416666666666664, 1.,0.,0.
*EL PRINT, POSITION=AVERAGED AT NODES, ELSET=TrimingE, FREQUENCY=99999
S,MISES
*EL PRINT, POSITION=AVERAGED AT NODES, ELSET=TrimingE, FREQUENCY=99999
PE,PEEQ
*Output, field,variable=PRESELECT
*End Step
**
**-----------------------------------------------------------
**
*Step, name = Step-119, nlgeom = NO
*Static
1., 1., 1e-5, 1
*Dsload
_PickedSurf16,TRVEC,34.70833333333333, 1.,0.,0.
*EL PRINT, POSITION=AVERAGED AT NODES, ELSET=TrimingE, FREQUENCY=99999
S,MISES
*EL PRINT, POSITION=AVERAGED AT NODES, ELSET=TrimingE, FREQUENCY=99999
PE,PEEQ
*Output, field,variable=PRESELECT
*End Step
**
**-----------------------------------------------------------
**
*Step, name = Step-120, nlgeom = NO
*Static
1., 1., 1e-5, 1
*Dsload
_PickedSurf16,TRVEC,34.99999999999999, 1.,0.,0.
*EL PRINT, POSITION=AVERAGED AT NODES, ELSET=TrimingE, FREQUENCY=99999
S,MISES
*EL PRINT, POSITION=AVERAGED AT NODES, ELSET=TrimingE, FREQUENCY=99999
PE,PEEQ
*Output, field,variable=PRESELECT
*End Step
**
**-----------------------------------------------------------
**
*Step, name = Step-121, nlgeom = NO
*Static
1., 1., 1e-5, 1
*Dsload
_PickedSurf16,TRVEC,35.291666666666664, 1.,0.,0.
*EL PRINT, POSITION=AVERAGED AT NODES, ELSET=TrimingE, FREQUENCY=99999
S,MISES
*EL PRINT, POSITION=AVERAGED AT NODES, ELSET=TrimingE, FREQUENCY=99999
PE,PEEQ
*Output, field,variable=PRESELECT
*End Step
**
**-----------------------------------------------------------
**
*Step, name = Step-122, nlgeom = NO
*Static
1., 1., 1e-5, 1
*Dsload
_PickedSurf16,TRVEC,35.58333333333333, 1.,0.,0.
*EL PRINT, POSITION=AVERAGED AT NODES, ELSET=TrimingE, FREQUENCY=99999
S,MISES
*EL PRINT, POSITION=AVERAGED AT NODES, ELSET=TrimingE, FREQUENCY=99999
PE,PEEQ
*Output, field,variable=PRESELECT
*End Step
**
**-----------------------------------------------------------
**
*Step, name = Step-123, nlgeom = NO
*Static
1., 1., 1e-5, 1
*Dsload
_PickedSurf16,TRVEC,35.87499999999999, 1.,0.,0.
*EL PRINT, POSITION=AVERAGED AT NODES, ELSET=TrimingE, FREQUENCY=99999
S,MISES
*EL PRINT, POSITION=AVERAGED AT NODES, ELSET=TrimingE, FREQUENCY=99999
PE,PEEQ
*Output, field,variable=PRESELECT
*End Step
**
**-----------------------------------------------------------
**
*Step, name = Step-124, nlgeom = NO
*Static
1., 1., 1e-5, 1
*Dsload
_PickedSurf16,TRVEC,36.166666666666664, 1.,0.,0.
*EL PRINT, POSITION=AVERAGED AT NODES, ELSET=TrimingE, FREQUENCY=99999
S,MISES
*EL PRINT, POSITION=AVERAGED AT NODES, ELSET=TrimingE, FREQUENCY=99999
PE,PEEQ
*Output, field,variable=PRESELECT
*End Step
**
**-----------------------------------------------------------
**
*Step, name = Step-125, nlgeom = NO
*Static
1., 1., 1e-5, 1
*Dsload
_PickedSurf16,TRVEC,36.45833333333333, 1.,0.,0.
*EL PRINT, POSITION=AVERAGED AT NODES, ELSET=TrimingE, FREQUENCY=99999
S,MISES
*EL PRINT, POSITION=AVERAGED AT NODES, ELSET=TrimingE, FREQUENCY=99999
PE,PEEQ
*Output, field,variable=PRESELECT
*End Step
**
**-----------------------------------------------------------
**
*Step, name = Step-126, nlgeom = NO
*Static
1., 1., 1e-5, 1
*Dsload
_PickedSurf16,TRVEC,36.74999999999999, 1.,0.,0.
*EL PRINT, POSITION=AVERAGED AT NODES, ELSET=TrimingE, FREQUENCY=99999
S,MISES
*EL PRINT, POSITION=AVERAGED AT NODES, ELSET=TrimingE, FREQUENCY=99999
PE,PEEQ
*Output, field,variable=PRESELECT
*End Step
**
**-----------------------------------------------------------
**
*Step, name = Step-127, nlgeom = NO
*Static
1., 1., 1e-5, 1
*Dsload
_PickedSurf16,TRVEC,37.041666666666664, 1.,0.,0.
*EL PRINT, POSITION=AVERAGED AT NODES, ELSET=TrimingE, FREQUENCY=99999
S,MISES
*EL PRINT, POSITION=AVERAGED AT NODES, ELSET=TrimingE, FREQUENCY=99999
PE,PEEQ
*Output, field,variable=PRESELECT
*End Step
**
**-----------------------------------------------------------
**
*Step, name = Step-128, nlgeom = NO
*Static
1., 1., 1e-5, 1
*Dsload
_PickedSurf16,TRVEC,37.33333333333333, 1.,0.,0.
*EL PRINT, POSITION=AVERAGED AT NODES, ELSET=TrimingE, FREQUENCY=99999
S,MISES
*EL PRINT, POSITION=AVERAGED AT NODES, ELSET=TrimingE, FREQUENCY=99999
PE,PEEQ
*Output, field,variable=PRESELECT
*End Step
**
**-----------------------------------------------------------
**
*Step, name = Step-129, nlgeom = NO
*Static
1., 1., 1e-5, 1
*Dsload
_PickedSurf16,TRVEC,37.62499999999999, 1.,0.,0.
*EL PRINT, POSITION=AVERAGED AT NODES, ELSET=TrimingE, FREQUENCY=99999
S,MISES
*EL PRINT, POSITION=AVERAGED AT NODES, ELSET=TrimingE, FREQUENCY=99999
PE,PEEQ
*Output, field,variable=PRESELECT
*End Step
**
**-----------------------------------------------------------
**
*Step, name = Step-130, nlgeom = NO
*Static
1., 1., 1e-5, 1
*Dsload
_PickedSurf16,TRVEC,37.916666666666664, 1.,0.,0.
*EL PRINT, POSITION=AVERAGED AT NODES, ELSET=TrimingE, FREQUENCY=99999
S,MISES
*EL PRINT, POSITION=AVERAGED AT NODES, ELSET=TrimingE, FREQUENCY=99999
PE,PEEQ
*Output, field,variable=PRESELECT
*End Step
**
**-----------------------------------------------------------
**
*Step, name = Step-131, nlgeom = NO
*Static
1., 1., 1e-5, 1
*Dsload
_PickedSurf16,TRVEC,38.20833333333333, 1.,0.,0.
*EL PRINT, POSITION=AVERAGED AT NODES, ELSET=TrimingE, FREQUENCY=99999
S,MISES
*EL PRINT, POSITION=AVERAGED AT NODES, ELSET=TrimingE, FREQUENCY=99999
PE,PEEQ
*Output, field,variable=PRESELECT
*End Step
**
**-----------------------------------------------------------
**
*Step, name = Step-132, nlgeom = NO
*Static
1., 1., 1e-5, 1
*Dsload
_PickedSurf16,TRVEC,38.49999999999999, 1.,0.,0.
*EL PRINT, POSITION=AVERAGED AT NODES, ELSET=TrimingE, FREQUENCY=99999
S,MISES
*EL PRINT, POSITION=AVERAGED AT NODES, ELSET=TrimingE, FREQUENCY=99999
PE,PEEQ
*Output, field,variable=PRESELECT
*End Step
**
**-----------------------------------------------------------
**
*Step, name = Step-133, nlgeom = NO
*Static
1., 1., 1e-5, 1
*Dsload
_PickedSurf16,TRVEC,38.791666666666664, 1.,0.,0.
*EL PRINT, POSITION=AVERAGED AT NODES, ELSET=TrimingE, FREQUENCY=99999
S,MISES
*EL PRINT, POSITION=AVERAGED AT NODES, ELSET=TrimingE, FREQUENCY=99999
PE,PEEQ
*Output, field,variable=PRESELECT
*End Step
**
**-----------------------------------------------------------
**
*Step, name = Step-134, nlgeom = NO
*Static
1., 1., 1e-5, 1
*Dsload
_PickedSurf16,TRVEC,39.08333333333333, 1.,0.,0.
*EL PRINT, POSITION=AVERAGED AT NODES, ELSET=TrimingE, FREQUENCY=99999
S,MISES
*EL PRINT, POSITION=AVERAGED AT NODES, ELSET=TrimingE, FREQUENCY=99999
PE,PEEQ
*Output, field,variable=PRESELECT
*End Step
**
**-----------------------------------------------------------
**
*Step, name = Step-135, nlgeom = NO
*Static
1., 1., 1e-5, 1
*Dsload
_PickedSurf16,TRVEC,39.37499999999999, 1.,0.,0.
*EL PRINT, POSITION=AVERAGED AT NODES, ELSET=TrimingE, FREQUENCY=99999
S,MISES
*EL PRINT, POSITION=AVERAGED AT NODES, ELSET=TrimingE, FREQUENCY=99999
PE,PEEQ
*Output, field,variable=PRESELECT
*End Step
**
**-----------------------------------------------------------
**
*Step, name = Step-136, nlgeom = NO
*Static
1., 1., 1e-5, 1
*Dsload
_PickedSurf16,TRVEC,39.666666666666664, 1.,0.,0.
*EL PRINT, POSITION=AVERAGED AT NODES, ELSET=TrimingE, FREQUENCY=99999
S,MISES
*EL PRINT, POSITION=AVERAGED AT NODES, ELSET=TrimingE, FREQUENCY=99999
PE,PEEQ
*Output, field,variable=PRESELECT
*End Step
**
**-----------------------------------------------------------
**
*Step, name = Step-137, nlgeom = NO
*Static
1., 1., 1e-5, 1
*Dsload
_PickedSurf16,TRVEC,39.95833333333333, 1.,0.,0.
*EL PRINT, POSITION=AVERAGED AT NODES, ELSET=TrimingE, FREQUENCY=99999
S,MISES
*EL PRINT, POSITION=AVERAGED AT NODES, ELSET=TrimingE, FREQUENCY=99999
PE,PEEQ
*Output, field,variable=PRESELECT
*End Step
**
**-----------------------------------------------------------
**
*Step, name = Step-138, nlgeom = NO
*Static
1., 1., 1e-5, 1
*Dsload
_PickedSurf16,TRVEC,40.24999999999999, 1.,0.,0.
*EL PRINT, POSITION=AVERAGED AT NODES, ELSET=TrimingE, FREQUENCY=99999
S,MISES
*EL PRINT, POSITION=AVERAGED AT NODES, ELSET=TrimingE, FREQUENCY=99999
PE,PEEQ
*Output, field,variable=PRESELECT
*End Step
**
**-----------------------------------------------------------
**
*Step, name = Step-139, nlgeom = NO
*Static
1., 1., 1e-5, 1
*Dsload
_PickedSurf16,TRVEC,40.541666666666664, 1.,0.,0.
*EL PRINT, POSITION=AVERAGED AT NODES, ELSET=TrimingE, FREQUENCY=99999
S,MISES
*EL PRINT, POSITION=AVERAGED AT NODES, ELSET=TrimingE, FREQUENCY=99999
PE,PEEQ
*Output, field,variable=PRESELECT
*End Step
**
**-----------------------------------------------------------
**
*Step, name = Step-140, nlgeom = NO
*Static
1., 1., 1e-5, 1
*Dsload
_PickedSurf16,TRVEC,40.83333333333333, 1.,0.,0.
*EL PRINT, POSITION=AVERAGED AT NODES, ELSET=TrimingE, FREQUENCY=99999
S,MISES
*EL PRINT, POSITION=AVERAGED AT NODES, ELSET=TrimingE, FREQUENCY=99999
PE,PEEQ
*Output, field,variable=PRESELECT
*End Step
**
**-----------------------------------------------------------
**
*Step, name = Step-141, nlgeom = NO
*Static
1., 1., 1e-5, 1
*Dsload
_PickedSurf16,TRVEC,41.12499999999999, 1.,0.,0.
*EL PRINT, POSITION=AVERAGED AT NODES, ELSET=TrimingE, FREQUENCY=99999
S,MISES
*EL PRINT, POSITION=AVERAGED AT NODES, ELSET=TrimingE, FREQUENCY=99999
PE,PEEQ
*Output, field,variable=PRESELECT
*End Step
**
**-----------------------------------------------------------
**
*Step, name = Step-142, nlgeom = NO
*Static
1., 1., 1e-5, 1
*Dsload
_PickedSurf16,TRVEC,41.416666666666664, 1.,0.,0.
*EL PRINT, POSITION=AVERAGED AT NODES, ELSET=TrimingE, FREQUENCY=99999
S,MISES
*EL PRINT, POSITION=AVERAGED AT NODES, ELSET=TrimingE, FREQUENCY=99999
PE,PEEQ
*Output, field,variable=PRESELECT
*End Step
**
**-----------------------------------------------------------
**
*Step, name = Step-143, nlgeom = NO
*Static
1., 1., 1e-5, 1
*Dsload
_PickedSurf16,TRVEC,41.70833333333333, 1.,0.,0.
*EL PRINT, POSITION=AVERAGED AT NODES, ELSET=TrimingE, FREQUENCY=99999
S,MISES
*EL PRINT, POSITION=AVERAGED AT NODES, ELSET=TrimingE, FREQUENCY=99999
PE,PEEQ
*Output, field,variable=PRESELECT
*End Step
**
**-----------------------------------------------------------
**
*Step, name = Step-144, nlgeom = NO
*Static
1., 1., 1e-5, 1
*Dsload
_PickedSurf16,TRVEC,41.99999999999999, 1.,0.,0.
*EL PRINT, POSITION=AVERAGED AT NODES, ELSET=TrimingE, FREQUENCY=99999
S,MISES
*EL PRINT, POSITION=AVERAGED AT NODES, ELSET=TrimingE, FREQUENCY=99999
PE,PEEQ
*Output, field,variable=PRESELECT
*End Step
**
**-----------------------------------------------------------
**
*Step, name = Step-145, nlgeom = NO
*Static
1., 1., 1e-5, 1
*Dsload
_PickedSurf16,TRVEC,42.291666666666664, 1.,0.,0.
*EL PRINT, POSITION=AVERAGED AT NODES, ELSET=TrimingE, FREQUENCY=99999
S,MISES
*EL PRINT, POSITION=AVERAGED AT NODES, ELSET=TrimingE, FREQUENCY=99999
PE,PEEQ
*Output, field,variable=PRESELECT
*End Step
**
**-----------------------------------------------------------
**
*Step, name = Step-146, nlgeom = NO
*Static
1., 1., 1e-5, 1
*Dsload
_PickedSurf16,TRVEC,42.58333333333333, 1.,0.,0.
*EL PRINT, POSITION=AVERAGED AT NODES, ELSET=TrimingE, FREQUENCY=99999
S,MISES
*EL PRINT, POSITION=AVERAGED AT NODES, ELSET=TrimingE, FREQUENCY=99999
PE,PEEQ
*Output, field,variable=PRESELECT
*End Step
**
**-----------------------------------------------------------
**
*Step, name = Step-147, nlgeom = NO
*Static
1., 1., 1e-5, 1
*Dsload
_PickedSurf16,TRVEC,42.87499999999999, 1.,0.,0.
*EL PRINT, POSITION=AVERAGED AT NODES, ELSET=TrimingE, FREQUENCY=99999
S,MISES
*EL PRINT, POSITION=AVERAGED AT NODES, ELSET=TrimingE, FREQUENCY=99999
PE,PEEQ
*Output, field,variable=PRESELECT
*End Step
**
**-----------------------------------------------------------
**
*Step, name = Step-148, nlgeom = NO
*Static
1., 1., 1e-5, 1
*Dsload
_PickedSurf16,TRVEC,43.166666666666664, 1.,0.,0.
*EL PRINT, POSITION=AVERAGED AT NODES, ELSET=TrimingE, FREQUENCY=99999
S,MISES
*EL PRINT, POSITION=AVERAGED AT NODES, ELSET=TrimingE, FREQUENCY=99999
PE,PEEQ
*Output, field,variable=PRESELECT
*End Step
**
**-----------------------------------------------------------
**
*Step, name = Step-149, nlgeom = NO
*Static
1., 1., 1e-5, 1
*Dsload
_PickedSurf16,TRVEC,43.45833333333333, 1.,0.,0.
*EL PRINT, POSITION=AVERAGED AT NODES, ELSET=TrimingE, FREQUENCY=99999
S,MISES
*EL PRINT, POSITION=AVERAGED AT NODES, ELSET=TrimingE, FREQUENCY=99999
PE,PEEQ
*Output, field,variable=PRESELECT
*End Step
**
**-----------------------------------------------------------
**
*Step, name = Step-150, nlgeom = NO
*Static
1., 1., 1e-5, 1
*Dsload
_PickedSurf16,TRVEC,43.74999999999999, 1.,0.,0.
*EL PRINT, POSITION=AVERAGED AT NODES, ELSET=TrimingE, FREQUENCY=99999
S,MISES
*EL PRINT, POSITION=AVERAGED AT NODES, ELSET=TrimingE, FREQUENCY=99999
PE,PEEQ
*Output, field,variable=PRESELECT
*End Step
**
**-----------------------------------------------------------
**
*Step, name = Step-151, nlgeom = NO
*Static
1., 1., 1e-5, 1
*Dsload
_PickedSurf16,TRVEC,44.041666666666664, 1.,0.,0.
*EL PRINT, POSITION=AVERAGED AT NODES, ELSET=TrimingE, FREQUENCY=99999
S,MISES
*EL PRINT, POSITION=AVERAGED AT NODES, ELSET=TrimingE, FREQUENCY=99999
PE,PEEQ
*Output, field,variable=PRESELECT
*End Step
**
**-----------------------------------------------------------
**
*Step, name = Step-152, nlgeom = NO
*Static
1., 1., 1e-5, 1
*Dsload
_PickedSurf16,TRVEC,44.33333333333333, 1.,0.,0.
*EL PRINT, POSITION=AVERAGED AT NODES, ELSET=TrimingE, FREQUENCY=99999
S,MISES
*EL PRINT, POSITION=AVERAGED AT NODES, ELSET=TrimingE, FREQUENCY=99999
PE,PEEQ
*Output, field,variable=PRESELECT
*End Step
**
**-----------------------------------------------------------
**
*Step, name = Step-153, nlgeom = NO
*Static
1., 1., 1e-5, 1
*Dsload
_PickedSurf16,TRVEC,44.62499999999999, 1.,0.,0.
*EL PRINT, POSITION=AVERAGED AT NODES, ELSET=TrimingE, FREQUENCY=99999
S,MISES
*EL PRINT, POSITION=AVERAGED AT NODES, ELSET=TrimingE, FREQUENCY=99999
PE,PEEQ
*Output, field,variable=PRESELECT
*End Step
**
**-----------------------------------------------------------
**
*Step, name = Step-154, nlgeom = NO
*Static
1., 1., 1e-5, 1
*Dsload
_PickedSurf16,TRVEC,44.916666666666664, 1.,0.,0.
*EL PRINT, POSITION=AVERAGED AT NODES, ELSET=TrimingE, FREQUENCY=99999
S,MISES
*EL PRINT, POSITION=AVERAGED AT NODES, ELSET=TrimingE, FREQUENCY=99999
PE,PEEQ
*Output, field,variable=PRESELECT
*End Step
**
**-----------------------------------------------------------
**
*Step, name = Step-155, nlgeom = NO
*Static
1., 1., 1e-5, 1
*Dsload
_PickedSurf16,TRVEC,45.20833333333333, 1.,0.,0.
*EL PRINT, POSITION=AVERAGED AT NODES, ELSET=TrimingE, FREQUENCY=99999
S,MISES
*EL PRINT, POSITION=AVERAGED AT NODES, ELSET=TrimingE, FREQUENCY=99999
PE,PEEQ
*Output, field,variable=PRESELECT
*End Step
**
**-----------------------------------------------------------
**
*Step, name = Step-156, nlgeom = NO
*Static
1., 1., 1e-5, 1
*Dsload
_PickedSurf16,TRVEC,45.49999999999999, 1.,0.,0.
*EL PRINT, POSITION=AVERAGED AT NODES, ELSET=TrimingE, FREQUENCY=99999
S,MISES
*EL PRINT, POSITION=AVERAGED AT NODES, ELSET=TrimingE, FREQUENCY=99999
PE,PEEQ
*Output, field,variable=PRESELECT
*End Step
**
**-----------------------------------------------------------
**
*Step, name = Step-157, nlgeom = NO
*Static
1., 1., 1e-5, 1
*Dsload
_PickedSurf16,TRVEC,45.791666666666664, 1.,0.,0.
*EL PRINT, POSITION=AVERAGED AT NODES, ELSET=TrimingE, FREQUENCY=99999
S,MISES
*EL PRINT, POSITION=AVERAGED AT NODES, ELSET=TrimingE, FREQUENCY=99999
PE,PEEQ
*Output, field,variable=PRESELECT
*End Step
**
**-----------------------------------------------------------
**
*Step, name = Step-158, nlgeom = NO
*Static
1., 1., 1e-5, 1
*Dsload
_PickedSurf16,TRVEC,46.08333333333333, 1.,0.,0.
*EL PRINT, POSITION=AVERAGED AT NODES, ELSET=TrimingE, FREQUENCY=99999
S,MISES
*EL PRINT, POSITION=AVERAGED AT NODES, ELSET=TrimingE, FREQUENCY=99999
PE,PEEQ
*Output, field,variable=PRESELECT
*End Step
**
**-----------------------------------------------------------
**
*Step, name = Step-159, nlgeom = NO
*Static
1., 1., 1e-5, 1
*Dsload
_PickedSurf16,TRVEC,46.37499999999999, 1.,0.,0.
*EL PRINT, POSITION=AVERAGED AT NODES, ELSET=TrimingE, FREQUENCY=99999
S,MISES
*EL PRINT, POSITION=AVERAGED AT NODES, ELSET=TrimingE, FREQUENCY=99999
PE,PEEQ
*Output, field,variable=PRESELECT
*End Step
**
**-----------------------------------------------------------
**
*Step, name = Step-160, nlgeom = NO
*Static
1., 1., 1e-5, 1
*Dsload
_PickedSurf16,TRVEC,46.66666666666666, 1.,0.,0.
*EL PRINT, POSITION=AVERAGED AT NODES, ELSET=TrimingE, FREQUENCY=99999
S,MISES
*EL PRINT, POSITION=AVERAGED AT NODES, ELSET=TrimingE, FREQUENCY=99999
PE,PEEQ
*Output, field,variable=PRESELECT
*End Step
**
**-----------------------------------------------------------
**
*Step, name = Step-161, nlgeom = NO
*Static
1., 1., 1e-5, 1
*Dsload
_PickedSurf16,TRVEC,46.95833333333333, 1.,0.,0.
*EL PRINT, POSITION=AVERAGED AT NODES, ELSET=TrimingE, FREQUENCY=99999
S,MISES
*EL PRINT, POSITION=AVERAGED AT NODES, ELSET=TrimingE, FREQUENCY=99999
PE,PEEQ
*Output, field,variable=PRESELECT
*End Step
**
**-----------------------------------------------------------
**
*Step, name = Step-162, nlgeom = NO
*Static
1., 1., 1e-5, 1
*Dsload
_PickedSurf16,TRVEC,47.24999999999999, 1.,0.,0.
*EL PRINT, POSITION=AVERAGED AT NODES, ELSET=TrimingE, FREQUENCY=99999
S,MISES
*EL PRINT, POSITION=AVERAGED AT NODES, ELSET=TrimingE, FREQUENCY=99999
PE,PEEQ
*Output, field,variable=PRESELECT
*End Step
**
**-----------------------------------------------------------
**
*Step, name = Step-163, nlgeom = NO
*Static
1., 1., 1e-5, 1
*Dsload
_PickedSurf16,TRVEC,47.54166666666666, 1.,0.,0.
*EL PRINT, POSITION=AVERAGED AT NODES, ELSET=TrimingE, FREQUENCY=99999
S,MISES
*EL PRINT, POSITION=AVERAGED AT NODES, ELSET=TrimingE, FREQUENCY=99999
PE,PEEQ
*Output, field,variable=PRESELECT
*End Step
**
**-----------------------------------------------------------
**
*Step, name = Step-164, nlgeom = NO
*Static
1., 1., 1e-5, 1
*Dsload
_PickedSurf16,TRVEC,47.83333333333333, 1.,0.,0.
*EL PRINT, POSITION=AVERAGED AT NODES, ELSET=TrimingE, FREQUENCY=99999
S,MISES
*EL PRINT, POSITION=AVERAGED AT NODES, ELSET=TrimingE, FREQUENCY=99999
PE,PEEQ
*Output, field,variable=PRESELECT
*End Step
**
**-----------------------------------------------------------
**
*Step, name = Step-165, nlgeom = NO
*Static
1., 1., 1e-5, 1
*Dsload
_PickedSurf16,TRVEC,48.12499999999999, 1.,0.,0.
*EL PRINT, POSITION=AVERAGED AT NODES, ELSET=TrimingE, FREQUENCY=99999
S,MISES
*EL PRINT, POSITION=AVERAGED AT NODES, ELSET=TrimingE, FREQUENCY=99999
PE,PEEQ
*Output, field,variable=PRESELECT
*End Step
**
**-----------------------------------------------------------
**
*Step, name = Step-166, nlgeom = NO
*Static
1., 1., 1e-5, 1
*Dsload
_PickedSurf16,TRVEC,48.41666666666666, 1.,0.,0.
*EL PRINT, POSITION=AVERAGED AT NODES, ELSET=TrimingE, FREQUENCY=99999
S,MISES
*EL PRINT, POSITION=AVERAGED AT NODES, ELSET=TrimingE, FREQUENCY=99999
PE,PEEQ
*Output, field,variable=PRESELECT
*End Step
**
**-----------------------------------------------------------
**
*Step, name = Step-167, nlgeom = NO
*Static
1., 1., 1e-5, 1
*Dsload
_PickedSurf16,TRVEC,48.70833333333333, 1.,0.,0.
*EL PRINT, POSITION=AVERAGED AT NODES, ELSET=TrimingE, FREQUENCY=99999
S,MISES
*EL PRINT, POSITION=AVERAGED AT NODES, ELSET=TrimingE, FREQUENCY=99999
PE,PEEQ
*Output, field,variable=PRESELECT
*End Step
**
**-----------------------------------------------------------
**
*Step, name = Step-168, nlgeom = NO
*Static
1., 1., 1e-5, 1
*Dsload
_PickedSurf16,TRVEC,48.99999999999999, 1.,0.,0.
*EL PRINT, POSITION=AVERAGED AT NODES, ELSET=TrimingE, FREQUENCY=99999
S,MISES
*EL PRINT, POSITION=AVERAGED AT NODES, ELSET=TrimingE, FREQUENCY=99999
PE,PEEQ
*Output, field,variable=PRESELECT
*End Step
**
**-----------------------------------------------------------
**
*Step, name = Step-169, nlgeom = NO
*Static
1., 1., 1e-5, 1
*Dsload
_PickedSurf16,TRVEC,49.29166666666666, 1.,0.,0.
*EL PRINT, POSITION=AVERAGED AT NODES, ELSET=TrimingE, FREQUENCY=99999
S,MISES
*EL PRINT, POSITION=AVERAGED AT NODES, ELSET=TrimingE, FREQUENCY=99999
PE,PEEQ
*Output, field,variable=PRESELECT
*End Step
**
**-----------------------------------------------------------
**
*Step, name = Step-170, nlgeom = NO
*Static
1., 1., 1e-5, 1
*Dsload
_PickedSurf16,TRVEC,49.58333333333333, 1.,0.,0.
*EL PRINT, POSITION=AVERAGED AT NODES, ELSET=TrimingE, FREQUENCY=99999
S,MISES
*EL PRINT, POSITION=AVERAGED AT NODES, ELSET=TrimingE, FREQUENCY=99999
PE,PEEQ
*Output, field,variable=PRESELECT
*End Step
**
**-----------------------------------------------------------
**
*Step, name = Step-171, nlgeom = NO
*Static
1., 1., 1e-5, 1
*Dsload
_PickedSurf16,TRVEC,49.87499999999999, 1.,0.,0.
*EL PRINT, POSITION=AVERAGED AT NODES, ELSET=TrimingE, FREQUENCY=99999
S,MISES
*EL PRINT, POSITION=AVERAGED AT NODES, ELSET=TrimingE, FREQUENCY=99999
PE,PEEQ
*Output, field,variable=PRESELECT
*End Step
**
**-----------------------------------------------------------
**
*Step, name = Step-172, nlgeom = NO
*Static
1., 1., 1e-5, 1
*Dsload
_PickedSurf16,TRVEC,50.16666666666666, 1.,0.,0.
*EL PRINT, POSITION=AVERAGED AT NODES, ELSET=TrimingE, FREQUENCY=99999
S,MISES
*EL PRINT, POSITION=AVERAGED AT NODES, ELSET=TrimingE, FREQUENCY=99999
PE,PEEQ
*Output, field,variable=PRESELECT
*End Step
**
**-----------------------------------------------------------
**
*Step, name = Step-173, nlgeom = NO
*Static
1., 1., 1e-5, 1
*Dsload
_PickedSurf16,TRVEC,50.45833333333333, 1.,0.,0.
*EL PRINT, POSITION=AVERAGED AT NODES, ELSET=TrimingE, FREQUENCY=99999
S,MISES
*EL PRINT, POSITION=AVERAGED AT NODES, ELSET=TrimingE, FREQUENCY=99999
PE,PEEQ
*Output, field,variable=PRESELECT
*End Step
**
**-----------------------------------------------------------
**
*Step, name = Step-174, nlgeom = NO
*Static
1., 1., 1e-5, 1
*Dsload
_PickedSurf16,TRVEC,50.74999999999999, 1.,0.,0.
*EL PRINT, POSITION=AVERAGED AT NODES, ELSET=TrimingE, FREQUENCY=99999
S,MISES
*EL PRINT, POSITION=AVERAGED AT NODES, ELSET=TrimingE, FREQUENCY=99999
PE,PEEQ
*Output, field,variable=PRESELECT
*End Step
**
**-----------------------------------------------------------
**
*Step, name = Step-175, nlgeom = NO
*Static
1., 1., 1e-5, 1
*Dsload
_PickedSurf16,TRVEC,51.04166666666666, 1.,0.,0.
*EL PRINT, POSITION=AVERAGED AT NODES, ELSET=TrimingE, FREQUENCY=99999
S,MISES
*EL PRINT, POSITION=AVERAGED AT NODES, ELSET=TrimingE, FREQUENCY=99999
PE,PEEQ
*Output, field,variable=PRESELECT
*End Step
**
**-----------------------------------------------------------
**
*Step, name = Step-176, nlgeom = NO
*Static
1., 1., 1e-5, 1
*Dsload
_PickedSurf16,TRVEC,51.33333333333333, 1.,0.,0.
*EL PRINT, POSITION=AVERAGED AT NODES, ELSET=TrimingE, FREQUENCY=99999
S,MISES
*EL PRINT, POSITION=AVERAGED AT NODES, ELSET=TrimingE, FREQUENCY=99999
PE,PEEQ
*Output, field,variable=PRESELECT
*End Step
**
**-----------------------------------------------------------
**
*Step, name = Step-177, nlgeom = NO
*Static
1., 1., 1e-5, 1
*Dsload
_PickedSurf16,TRVEC,51.62499999999999, 1.,0.,0.
*EL PRINT, POSITION=AVERAGED AT NODES, ELSET=TrimingE, FREQUENCY=99999
S,MISES
*EL PRINT, POSITION=AVERAGED AT NODES, ELSET=TrimingE, FREQUENCY=99999
PE,PEEQ
*Output, field,variable=PRESELECT
*End Step
**
**-----------------------------------------------------------
**
*Step, name = Step-178, nlgeom = NO
*Static
1., 1., 1e-5, 1
*Dsload
_PickedSurf16,TRVEC,51.91666666666666, 1.,0.,0.
*EL PRINT, POSITION=AVERAGED AT NODES, ELSET=TrimingE, FREQUENCY=99999
S,MISES
*EL PRINT, POSITION=AVERAGED AT NODES, ELSET=TrimingE, FREQUENCY=99999
PE,PEEQ
*Output, field,variable=PRESELECT
*End Step
**
**-----------------------------------------------------------
**
*Step, name = Step-179, nlgeom = NO
*Static
1., 1., 1e-5, 1
*Dsload
_PickedSurf16,TRVEC,52.20833333333333, 1.,0.,0.
*EL PRINT, POSITION=AVERAGED AT NODES, ELSET=TrimingE, FREQUENCY=99999
S,MISES
*EL PRINT, POSITION=AVERAGED AT NODES, ELSET=TrimingE, FREQUENCY=99999
PE,PEEQ
*Output, field,variable=PRESELECT
*End Step
**
**-----------------------------------------------------------
**
*Step, name = Step-180, nlgeom = NO
*Static
1., 1., 1e-5, 1
*Dsload
_PickedSurf16,TRVEC,52.49999999999999, 1.,0.,0.
*EL PRINT, POSITION=AVERAGED AT NODES, ELSET=TrimingE, FREQUENCY=99999
S,MISES
*EL PRINT, POSITION=AVERAGED AT NODES, ELSET=TrimingE, FREQUENCY=99999
PE,PEEQ
*Output, field,variable=PRESELECT
*End Step
**
**-----------------------------------------------------------
**
*Step, name = Step-181, nlgeom = NO
*Static
1., 1., 1e-5, 1
*Dsload
_PickedSurf16,TRVEC,52.79166666666666, 1.,0.,0.
*EL PRINT, POSITION=AVERAGED AT NODES, ELSET=TrimingE, FREQUENCY=99999
S,MISES
*EL PRINT, POSITION=AVERAGED AT NODES, ELSET=TrimingE, FREQUENCY=99999
PE,PEEQ
*Output, field,variable=PRESELECT
*End Step
**
**-----------------------------------------------------------
**
*Step, name = Step-182, nlgeom = NO
*Static
1., 1., 1e-5, 1
*Dsload
_PickedSurf16,TRVEC,53.08333333333333, 1.,0.,0.
*EL PRINT, POSITION=AVERAGED AT NODES, ELSET=TrimingE, FREQUENCY=99999
S,MISES
*EL PRINT, POSITION=AVERAGED AT NODES, ELSET=TrimingE, FREQUENCY=99999
PE,PEEQ
*Output, field,variable=PRESELECT
*End Step
**
**-----------------------------------------------------------
**
*Step, name = Step-183, nlgeom = NO
*Static
1., 1., 1e-5, 1
*Dsload
_PickedSurf16,TRVEC,53.37499999999999, 1.,0.,0.
*EL PRINT, POSITION=AVERAGED AT NODES, ELSET=TrimingE, FREQUENCY=99999
S,MISES
*EL PRINT, POSITION=AVERAGED AT NODES, ELSET=TrimingE, FREQUENCY=99999
PE,PEEQ
*Output, field,variable=PRESELECT
*End Step
**
**-----------------------------------------------------------
**
*Step, name = Step-184, nlgeom = NO
*Static
1., 1., 1e-5, 1
*Dsload
_PickedSurf16,TRVEC,53.66666666666666, 1.,0.,0.
*EL PRINT, POSITION=AVERAGED AT NODES, ELSET=TrimingE, FREQUENCY=99999
S,MISES
*EL PRINT, POSITION=AVERAGED AT NODES, ELSET=TrimingE, FREQUENCY=99999
PE,PEEQ
*Output, field,variable=PRESELECT
*End Step
**
**-----------------------------------------------------------
**
*Step, name = Step-185, nlgeom = NO
*Static
1., 1., 1e-5, 1
*Dsload
_PickedSurf16,TRVEC,53.95833333333333, 1.,0.,0.
*EL PRINT, POSITION=AVERAGED AT NODES, ELSET=TrimingE, FREQUENCY=99999
S,MISES
*EL PRINT, POSITION=AVERAGED AT NODES, ELSET=TrimingE, FREQUENCY=99999
PE,PEEQ
*Output, field,variable=PRESELECT
*End Step
**
**-----------------------------------------------------------
**
*Step, name = Step-186, nlgeom = NO
*Static
1., 1., 1e-5, 1
*Dsload
_PickedSurf16,TRVEC,54.24999999999999, 1.,0.,0.
*EL PRINT, POSITION=AVERAGED AT NODES, ELSET=TrimingE, FREQUENCY=99999
S,MISES
*EL PRINT, POSITION=AVERAGED AT NODES, ELSET=TrimingE, FREQUENCY=99999
PE,PEEQ
*Output, field,variable=PRESELECT
*End Step
**
**-----------------------------------------------------------
**
*Step, name = Step-187, nlgeom = NO
*Static
1., 1., 1e-5, 1
*Dsload
_PickedSurf16,TRVEC,54.54166666666666, 1.,0.,0.
*EL PRINT, POSITION=AVERAGED AT NODES, ELSET=TrimingE, FREQUENCY=99999
S,MISES
*EL PRINT, POSITION=AVERAGED AT NODES, ELSET=TrimingE, FREQUENCY=99999
PE,PEEQ
*Output, field,variable=PRESELECT
*End Step
**
**-----------------------------------------------------------
**
*Step, name = Step-188, nlgeom = NO
*Static
1., 1., 1e-5, 1
*Dsload
_PickedSurf16,TRVEC,54.83333333333333, 1.,0.,0.
*EL PRINT, POSITION=AVERAGED AT NODES, ELSET=TrimingE, FREQUENCY=99999
S,MISES
*EL PRINT, POSITION=AVERAGED AT NODES, ELSET=TrimingE, FREQUENCY=99999
PE,PEEQ
*Output, field,variable=PRESELECT
*End Step
**
**-----------------------------------------------------------
**
*Step, name = Step-189, nlgeom = NO
*Static
1., 1., 1e-5, 1
*Dsload
_PickedSurf16,TRVEC,55.12499999999999, 1.,0.,0.
*EL PRINT, POSITION=AVERAGED AT NODES, ELSET=TrimingE, FREQUENCY=99999
S,MISES
*EL PRINT, POSITION=AVERAGED AT NODES, ELSET=TrimingE, FREQUENCY=99999
PE,PEEQ
*Output, field,variable=PRESELECT
*End Step
**
**-----------------------------------------------------------
**
*Step, name = Step-190, nlgeom = NO
*Static
1., 1., 1e-5, 1
*Dsload
_PickedSurf16,TRVEC,55.41666666666666, 1.,0.,0.
*EL PRINT, POSITION=AVERAGED AT NODES, ELSET=TrimingE, FREQUENCY=99999
S,MISES
*EL PRINT, POSITION=AVERAGED AT NODES, ELSET=TrimingE, FREQUENCY=99999
PE,PEEQ
*Output, field,variable=PRESELECT
*End Step
**
**-----------------------------------------------------------
**
*Step, name = Step-191, nlgeom = NO
*Static
1., 1., 1e-5, 1
*Dsload
_PickedSurf16,TRVEC,55.70833333333333, 1.,0.,0.
*EL PRINT, POSITION=AVERAGED AT NODES, ELSET=TrimingE, FREQUENCY=99999
S,MISES
*EL PRINT, POSITION=AVERAGED AT NODES, ELSET=TrimingE, FREQUENCY=99999
PE,PEEQ
*Output, field,variable=PRESELECT
*End Step
**
**-----------------------------------------------------------
**
*Step, name = Step-192, nlgeom = NO
*Static
1., 1., 1e-5, 1
*Dsload
_PickedSurf16,TRVEC,55.99999999999999, 1.,0.,0.
*EL PRINT, POSITION=AVERAGED AT NODES, ELSET=TrimingE, FREQUENCY=99999
S,MISES
*EL PRINT, POSITION=AVERAGED AT NODES, ELSET=TrimingE, FREQUENCY=99999
PE,PEEQ
*Output, field,variable=PRESELECT
*End Step
**
**-----------------------------------------------------------
**
*Step, name = Step-193, nlgeom = NO
*Static
1., 1., 1e-5, 1
*Dsload
_PickedSurf16,TRVEC,56.29166666666666, 1.,0.,0.
*EL PRINT, POSITION=AVERAGED AT NODES, ELSET=TrimingE, FREQUENCY=99999
S,MISES
*EL PRINT, POSITION=AVERAGED AT NODES, ELSET=TrimingE, FREQUENCY=99999
PE,PEEQ
*Output, field,variable=PRESELECT
*End Step
**
**-----------------------------------------------------------
**
*Step, name = Step-194, nlgeom = NO
*Static
1., 1., 1e-5, 1
*Dsload
_PickedSurf16,TRVEC,56.58333333333333, 1.,0.,0.
*EL PRINT, POSITION=AVERAGED AT NODES, ELSET=TrimingE, FREQUENCY=99999
S,MISES
*EL PRINT, POSITION=AVERAGED AT NODES, ELSET=TrimingE, FREQUENCY=99999
PE,PEEQ
*Output, field,variable=PRESELECT
*End Step
**
**-----------------------------------------------------------
**
*Step, name = Step-195, nlgeom = NO
*Static
1., 1., 1e-5, 1
*Dsload
_PickedSurf16,TRVEC,56.87499999999999, 1.,0.,0.
*EL PRINT, POSITION=AVERAGED AT NODES, ELSET=TrimingE, FREQUENCY=99999
S,MISES
*EL PRINT, POSITION=AVERAGED AT NODES, ELSET=TrimingE, FREQUENCY=99999
PE,PEEQ
*Output, field,variable=PRESELECT
*End Step
**
**-----------------------------------------------------------
**
*Step, name = Step-196, nlgeom = NO
*Static
1., 1., 1e-5, 1
*Dsload
_PickedSurf16,TRVEC,57.16666666666666, 1.,0.,0.
*EL PRINT, POSITION=AVERAGED AT NODES, ELSET=TrimingE, FREQUENCY=99999
S,MISES
*EL PRINT, POSITION=AVERAGED AT NODES, ELSET=TrimingE, FREQUENCY=99999
PE,PEEQ
*Output, field,variable=PRESELECT
*End Step
**
**-----------------------------------------------------------
**
*Step, name = Step-197, nlgeom = NO
*Static
1., 1., 1e-5, 1
*Dsload
_PickedSurf16,TRVEC,57.45833333333333, 1.,0.,0.
*EL PRINT, POSITION=AVERAGED AT NODES, ELSET=TrimingE, FREQUENCY=99999
S,MISES
*EL PRINT, POSITION=AVERAGED AT NODES, ELSET=TrimingE, FREQUENCY=99999
PE,PEEQ
*Output, field,variable=PRESELECT
*End Step
**
**-----------------------------------------------------------
**
*Step, name = Step-198, nlgeom = NO
*Static
1., 1., 1e-5, 1
*Dsload
_PickedSurf16,TRVEC,57.74999999999999, 1.,0.,0.
*EL PRINT, POSITION=AVERAGED AT NODES, ELSET=TrimingE, FREQUENCY=99999
S,MISES
*EL PRINT, POSITION=AVERAGED AT NODES, ELSET=TrimingE, FREQUENCY=99999
PE,PEEQ
*Output, field,variable=PRESELECT
*End Step
**
**-----------------------------------------------------------
**
*Step, name = Step-199, nlgeom = NO
*Static
1., 1., 1e-5, 1
*Dsload
_PickedSurf16,TRVEC,58.04166666666666, 1.,0.,0.
*EL PRINT, POSITION=AVERAGED AT NODES, ELSET=TrimingE, FREQUENCY=99999
S,MISES
*EL PRINT, POSITION=AVERAGED AT NODES, ELSET=TrimingE, FREQUENCY=99999
PE,PEEQ
*Output, field,variable=PRESELECT
*End Step
**
**-----------------------------------------------------------
**
*Step, name = Step-200, nlgeom = NO
*Static
1., 1., 1e-5, 1
*Dsload
_PickedSurf16,TRVEC,58.33333333333333, 1.,0.,0.
*EL PRINT, POSITION=AVERAGED AT NODES, ELSET=TrimingE, FREQUENCY=99999
S,MISES
*EL PRINT, POSITION=AVERAGED AT NODES, ELSET=TrimingE, FREQUENCY=99999
PE,PEEQ
*Output, field,variable=PRESELECT
*End Step
**
**-----------------------------------------------------------
**
*Step, name = Step-201, nlgeom = NO
*Static
1., 1., 1e-5, 1
*Dsload
_PickedSurf16,TRVEC,58.62499999999999, 1.,0.,0.
*EL PRINT, POSITION=AVERAGED AT NODES, ELSET=TrimingE, FREQUENCY=99999
S,MISES
*EL PRINT, POSITION=AVERAGED AT NODES, ELSET=TrimingE, FREQUENCY=99999
PE,PEEQ
*Output, field,variable=PRESELECT
*End Step
**
**-----------------------------------------------------------
**
*Step, name = Step-202, nlgeom = NO
*Static
1., 1., 1e-5, 1
*Dsload
_PickedSurf16,TRVEC,58.91666666666666, 1.,0.,0.
*EL PRINT, POSITION=AVERAGED AT NODES, ELSET=TrimingE, FREQUENCY=99999
S,MISES
*EL PRINT, POSITION=AVERAGED AT NODES, ELSET=TrimingE, FREQUENCY=99999
PE,PEEQ
*Output, field,variable=PRESELECT
*End Step
**
**-----------------------------------------------------------
**
*Step, name = Step-203, nlgeom = NO
*Static
1., 1., 1e-5, 1
*Dsload
_PickedSurf16,TRVEC,59.20833333333333, 1.,0.,0.
*EL PRINT, POSITION=AVERAGED AT NODES, ELSET=TrimingE, FREQUENCY=99999
S,MISES
*EL PRINT, POSITION=AVERAGED AT NODES, ELSET=TrimingE, FREQUENCY=99999
PE,PEEQ
*Output, field,variable=PRESELECT
*End Step
**
**-----------------------------------------------------------
**
*Step, name = Step-204, nlgeom = NO
*Static
1., 1., 1e-5, 1
*Dsload
_PickedSurf16,TRVEC,59.49999999999999, 1.,0.,0.
*EL PRINT, POSITION=AVERAGED AT NODES, ELSET=TrimingE, FREQUENCY=99999
S,MISES
*EL PRINT, POSITION=AVERAGED AT NODES, ELSET=TrimingE, FREQUENCY=99999
PE,PEEQ
*Output, field,variable=PRESELECT
*End Step
**
**-----------------------------------------------------------
**
*Step, name = Step-205, nlgeom = NO
*Static
1., 1., 1e-5, 1
*Dsload
_PickedSurf16,TRVEC,59.79166666666666, 1.,0.,0.
*EL PRINT, POSITION=AVERAGED AT NODES, ELSET=TrimingE, FREQUENCY=99999
S,MISES
*EL PRINT, POSITION=AVERAGED AT NODES, ELSET=TrimingE, FREQUENCY=99999
PE,PEEQ
*Output, field,variable=PRESELECT
*End Step
**
**-----------------------------------------------------------
**
*Step, name = Step-206, nlgeom = NO
*Static
1., 1., 1e-5, 1
*Dsload
_PickedSurf16,TRVEC,60.08333333333333, 1.,0.,0.
*EL PRINT, POSITION=AVERAGED AT NODES, ELSET=TrimingE, FREQUENCY=99999
S,MISES
*EL PRINT, POSITION=AVERAGED AT NODES, ELSET=TrimingE, FREQUENCY=99999
PE,PEEQ
*Output, field,variable=PRESELECT
*End Step
**
**-----------------------------------------------------------
**
*Step, name = Step-207, nlgeom = NO
*Static
1., 1., 1e-5, 1
*Dsload
_PickedSurf16,TRVEC,60.37499999999999, 1.,0.,0.
*EL PRINT, POSITION=AVERAGED AT NODES, ELSET=TrimingE, FREQUENCY=99999
S,MISES
*EL PRINT, POSITION=AVERAGED AT NODES, ELSET=TrimingE, FREQUENCY=99999
PE,PEEQ
*Output, field,variable=PRESELECT
*End Step
**
**-----------------------------------------------------------
**
*Step, name = Step-208, nlgeom = NO
*Static
1., 1., 1e-5, 1
*Dsload
_PickedSurf16,TRVEC,60.66666666666666, 1.,0.,0.
*EL PRINT, POSITION=AVERAGED AT NODES, ELSET=TrimingE, FREQUENCY=99999
S,MISES
*EL PRINT, POSITION=AVERAGED AT NODES, ELSET=TrimingE, FREQUENCY=99999
PE,PEEQ
*Output, field,variable=PRESELECT
*End Step
**
**-----------------------------------------------------------
**
*Step, name = Step-209, nlgeom = NO
*Static
1., 1., 1e-5, 1
*Dsload
_PickedSurf16,TRVEC,60.95833333333333, 1.,0.,0.
*EL PRINT, POSITION=AVERAGED AT NODES, ELSET=TrimingE, FREQUENCY=99999
S,MISES
*EL PRINT, POSITION=AVERAGED AT NODES, ELSET=TrimingE, FREQUENCY=99999
PE,PEEQ
*Output, field,variable=PRESELECT
*End Step
**
**-----------------------------------------------------------
**
*Step, name = Step-210, nlgeom = NO
*Static
1., 1., 1e-5, 1
*Dsload
_PickedSurf16,TRVEC,61.24999999999999, 1.,0.,0.
*EL PRINT, POSITION=AVERAGED AT NODES, ELSET=TrimingE, FREQUENCY=99999
S,MISES
*EL PRINT, POSITION=AVERAGED AT NODES, ELSET=TrimingE, FREQUENCY=99999
PE,PEEQ
*Output, field,variable=PRESELECT
*End Step